
---------- Begin Simulation Statistics ----------
simSeconds 0.027602
simTicks 27602060976
finalTick 376593095934
simFreq 1000000000000
hostSeconds 166.92
hostTickRate 165359414
hostMemory 5002148
simInsts 45778309
simOps 49322287
hostInstRate 274250
hostOpRate 295481
system.clk_domain.clock 666
system.cpu_cluster.clk_domain.clock 666
system.cpu_cluster.cpus0.numCycles 41444536
system.cpu_cluster.cpus0.cpi 1.097992
system.cpu_cluster.cpus0.ipc 0.910753
system.cpu_cluster.cpus0.numWorkItemsStarted 0
system.cpu_cluster.cpus0.numWorkItemsCompleted 0
system.cpu_cluster.cpus0.instsAdded 38669347
system.cpu_cluster.cpus0.nonSpecInstsAdded 711
system.cpu_cluster.cpus0.instsIssued 38664966
system.cpu_cluster.cpus0.squashedInstsIssued 1870
system.cpu_cluster.cpus0.squashedInstsExamined 10933
system.cpu_cluster.cpus0.squashedOperandsExamined 8725
system.cpu_cluster.cpus0.squashedNonSpecRemoved 50
system.cpu_cluster.cpus0.numIssuedDist::samples 41385535
system.cpu_cluster.cpus0.numIssuedDist::mean 0.934263
system.cpu_cluster.cpus0.numIssuedDist::stdev 0.247822
system.cpu_cluster.cpus0.numIssuedDist::underflows 0 0.00% 0.00%
system.cpu_cluster.cpus0.numIssuedDist::0 2720569 6.57% 6.57%
system.cpu_cluster.cpus0.numIssuedDist::1 38664966 93.43% 100.00%
system.cpu_cluster.cpus0.numIssuedDist::overflows 0 0.00% 100.00%
system.cpu_cluster.cpus0.numIssuedDist::min_value 0
system.cpu_cluster.cpus0.numIssuedDist::max_value 1
system.cpu_cluster.cpus0.numIssuedDist::total 41385535
system.cpu_cluster.cpus0.statFuBusy::No_OpClass 0 0.00% 0.00%
system.cpu_cluster.cpus0.statFuBusy::IntAlu 0 0.00% 0.00%
system.cpu_cluster.cpus0.statFuBusy::IntMult 216 25.17% 25.17%
system.cpu_cluster.cpus0.statFuBusy::IntDiv 642 74.83% 100.00%
system.cpu_cluster.cpus0.statFuBusy::FloatAdd 0 0.00% 100.00%
system.cpu_cluster.cpus0.statFuBusy::FloatCmp 0 0.00% 100.00%
system.cpu_cluster.cpus0.statFuBusy::FloatCvt 0 0.00% 100.00%
system.cpu_cluster.cpus0.statFuBusy::FloatMult 0 0.00% 100.00%
system.cpu_cluster.cpus0.statFuBusy::FloatMultAcc 0 0.00% 100.00%
system.cpu_cluster.cpus0.statFuBusy::FloatDiv 0 0.00% 100.00%
system.cpu_cluster.cpus0.statFuBusy::FloatMisc 0 0.00% 100.00%
system.cpu_cluster.cpus0.statFuBusy::FloatSqrt 0 0.00% 100.00%
system.cpu_cluster.cpus0.statFuBusy::SimdAdd 0 0.00% 100.00%
system.cpu_cluster.cpus0.statFuBusy::SimdAddAcc 0 0.00% 100.00%
system.cpu_cluster.cpus0.statFuBusy::SimdAlu 0 0.00% 100.00%
system.cpu_cluster.cpus0.statFuBusy::SimdCmp 0 0.00% 100.00%
system.cpu_cluster.cpus0.statFuBusy::SimdCvt 0 0.00% 100.00%
system.cpu_cluster.cpus0.statFuBusy::SimdMisc 0 0.00% 100.00%
system.cpu_cluster.cpus0.statFuBusy::SimdMult 0 0.00% 100.00%
system.cpu_cluster.cpus0.statFuBusy::SimdMultAcc 0 0.00% 100.00%
system.cpu_cluster.cpus0.statFuBusy::SimdMatMultAcc 0 0.00% 100.00%
system.cpu_cluster.cpus0.statFuBusy::SimdShift 0 0.00% 100.00%
system.cpu_cluster.cpus0.statFuBusy::SimdShiftAcc 0 0.00% 100.00%
system.cpu_cluster.cpus0.statFuBusy::SimdDiv 0 0.00% 100.00%
system.cpu_cluster.cpus0.statFuBusy::SimdSqrt 0 0.00% 100.00%
system.cpu_cluster.cpus0.statFuBusy::SimdFloatAdd 0 0.00% 100.00%
system.cpu_cluster.cpus0.statFuBusy::SimdFloatAlu 0 0.00% 100.00%
system.cpu_cluster.cpus0.statFuBusy::SimdFloatCmp 0 0.00% 100.00%
system.cpu_cluster.cpus0.statFuBusy::SimdFloatCvt 0 0.00% 100.00%
system.cpu_cluster.cpus0.statFuBusy::SimdFloatDiv 0 0.00% 100.00%
system.cpu_cluster.cpus0.statFuBusy::SimdFloatMisc 0 0.00% 100.00%
system.cpu_cluster.cpus0.statFuBusy::SimdFloatMult 0 0.00% 100.00%
system.cpu_cluster.cpus0.statFuBusy::SimdFloatMultAcc 0 0.00% 100.00%
system.cpu_cluster.cpus0.statFuBusy::SimdFloatMatMultAcc 0 0.00% 100.00%
system.cpu_cluster.cpus0.statFuBusy::SimdFloatSqrt 0 0.00% 100.00%
system.cpu_cluster.cpus0.statFuBusy::SimdReduceAdd 0 0.00% 100.00%
system.cpu_cluster.cpus0.statFuBusy::SimdReduceAlu 0 0.00% 100.00%
system.cpu_cluster.cpus0.statFuBusy::SimdReduceCmp 0 0.00% 100.00%
system.cpu_cluster.cpus0.statFuBusy::SimdFloatReduceAdd 0 0.00% 100.00%
system.cpu_cluster.cpus0.statFuBusy::SimdFloatReduceCmp 0 0.00% 100.00%
system.cpu_cluster.cpus0.statFuBusy::SimdAes 0 0.00% 100.00%
system.cpu_cluster.cpus0.statFuBusy::SimdAesMix 0 0.00% 100.00%
system.cpu_cluster.cpus0.statFuBusy::SimdSha1Hash 0 0.00% 100.00%
system.cpu_cluster.cpus0.statFuBusy::SimdSha1Hash2 0 0.00% 100.00%
system.cpu_cluster.cpus0.statFuBusy::SimdSha256Hash 0 0.00% 100.00%
system.cpu_cluster.cpus0.statFuBusy::SimdSha256Hash2 0 0.00% 100.00%
system.cpu_cluster.cpus0.statFuBusy::SimdShaSigma2 0 0.00% 100.00%
system.cpu_cluster.cpus0.statFuBusy::SimdShaSigma3 0 0.00% 100.00%
system.cpu_cluster.cpus0.statFuBusy::SimdPredAlu 0 0.00% 100.00%
system.cpu_cluster.cpus0.statFuBusy::Matrix 0 0.00% 100.00%
system.cpu_cluster.cpus0.statFuBusy::MatrixMov 0 0.00% 100.00%
system.cpu_cluster.cpus0.statFuBusy::MatrixOP 0 0.00% 100.00%
system.cpu_cluster.cpus0.statFuBusy::MemRead 0 0.00% 100.00%
system.cpu_cluster.cpus0.statFuBusy::MemWrite 0 0.00% 100.00%
system.cpu_cluster.cpus0.statFuBusy::FloatMemRead 0 0.00% 100.00%
system.cpu_cluster.cpus0.statFuBusy::FloatMemWrite 0 0.00% 100.00%
system.cpu_cluster.cpus0.statFuBusy::IprAccess 0 0.00% 100.00%
system.cpu_cluster.cpus0.statFuBusy::InstPrefetch 0 0.00% 100.00%
system.cpu_cluster.cpus0.statFuBusy::VectorUnitStrideLoad 0 0.00% 100.00%
system.cpu_cluster.cpus0.statFuBusy::VectorUnitStrideStore 0 0.00% 100.00%
system.cpu_cluster.cpus0.statFuBusy::VectorUnitStrideMaskLoad 0 0.00% 100.00%
system.cpu_cluster.cpus0.statFuBusy::VectorUnitStrideMaskStore 0 0.00% 100.00%
system.cpu_cluster.cpus0.statFuBusy::VectorStridedLoad 0 0.00% 100.00%
system.cpu_cluster.cpus0.statFuBusy::VectorStridedStore 0 0.00% 100.00%
system.cpu_cluster.cpus0.statFuBusy::VectorIndexedLoad 0 0.00% 100.00%
system.cpu_cluster.cpus0.statFuBusy::VectorIndexedStore 0 0.00% 100.00%
system.cpu_cluster.cpus0.statFuBusy::VectorUnitStrideFaultOnlyFirstLoad 0 0.00% 100.00%
system.cpu_cluster.cpus0.statFuBusy::VectorWholeRegisterLoad 0 0.00% 100.00%
system.cpu_cluster.cpus0.statFuBusy::VectorWholeRegisterStore 0 0.00% 100.00%
system.cpu_cluster.cpus0.statFuBusy::VectorIntegerArith 0 0.00% 100.00%
system.cpu_cluster.cpus0.statFuBusy::VectorFloatArith 0 0.00% 100.00%
system.cpu_cluster.cpus0.statFuBusy::VectorFloatConvert 0 0.00% 100.00%
system.cpu_cluster.cpus0.statFuBusy::VectorIntegerReduce 0 0.00% 100.00%
system.cpu_cluster.cpus0.statFuBusy::VectorFloatReduce 0 0.00% 100.00%
system.cpu_cluster.cpus0.statFuBusy::VectorMisc 0 0.00% 100.00%
system.cpu_cluster.cpus0.statFuBusy::VectorIntegerExtension 0 0.00% 100.00%
system.cpu_cluster.cpus0.statFuBusy::VectorConfig 0 0.00% 100.00%
system.cpu_cluster.cpus0.statIssuedInstType_0::No_OpClass 33 0.00% 0.00%
system.cpu_cluster.cpus0.statIssuedInstType_0::IntAlu 21057948 54.46% 54.46%
system.cpu_cluster.cpus0.statIssuedInstType_0::IntMult 60479 0.16% 54.62%
system.cpu_cluster.cpus0.statIssuedInstType_0::IntDiv 60139 0.16% 54.77%
system.cpu_cluster.cpus0.statIssuedInstType_0::FloatAdd 0 0.00% 54.77%
system.cpu_cluster.cpus0.statIssuedInstType_0::FloatCmp 0 0.00% 54.77%
system.cpu_cluster.cpus0.statIssuedInstType_0::FloatCvt 0 0.00% 54.77%
system.cpu_cluster.cpus0.statIssuedInstType_0::FloatMult 0 0.00% 54.77%
system.cpu_cluster.cpus0.statIssuedInstType_0::FloatMultAcc 0 0.00% 54.77%
system.cpu_cluster.cpus0.statIssuedInstType_0::FloatDiv 0 0.00% 54.77%
system.cpu_cluster.cpus0.statIssuedInstType_0::FloatMisc 0 0.00% 54.77%
system.cpu_cluster.cpus0.statIssuedInstType_0::FloatSqrt 0 0.00% 54.77%
system.cpu_cluster.cpus0.statIssuedInstType_0::SimdAdd 0 0.00% 54.77%
system.cpu_cluster.cpus0.statIssuedInstType_0::SimdAddAcc 0 0.00% 54.77%
system.cpu_cluster.cpus0.statIssuedInstType_0::SimdAlu 0 0.00% 54.77%
system.cpu_cluster.cpus0.statIssuedInstType_0::SimdCmp 0 0.00% 54.77%
system.cpu_cluster.cpus0.statIssuedInstType_0::SimdCvt 0 0.00% 54.77%
system.cpu_cluster.cpus0.statIssuedInstType_0::SimdMisc 0 0.00% 54.77%
system.cpu_cluster.cpus0.statIssuedInstType_0::SimdMult 0 0.00% 54.77%
system.cpu_cluster.cpus0.statIssuedInstType_0::SimdMultAcc 0 0.00% 54.77%
system.cpu_cluster.cpus0.statIssuedInstType_0::SimdMatMultAcc 0 0.00% 54.77%
system.cpu_cluster.cpus0.statIssuedInstType_0::SimdShift 0 0.00% 54.77%
system.cpu_cluster.cpus0.statIssuedInstType_0::SimdShiftAcc 0 0.00% 54.77%
system.cpu_cluster.cpus0.statIssuedInstType_0::SimdDiv 0 0.00% 54.77%
system.cpu_cluster.cpus0.statIssuedInstType_0::SimdSqrt 0 0.00% 54.77%
system.cpu_cluster.cpus0.statIssuedInstType_0::SimdFloatAdd 0 0.00% 54.77%
system.cpu_cluster.cpus0.statIssuedInstType_0::SimdFloatAlu 0 0.00% 54.77%
system.cpu_cluster.cpus0.statIssuedInstType_0::SimdFloatCmp 0 0.00% 54.77%
system.cpu_cluster.cpus0.statIssuedInstType_0::SimdFloatCvt 0 0.00% 54.77%
system.cpu_cluster.cpus0.statIssuedInstType_0::SimdFloatDiv 0 0.00% 54.77%
system.cpu_cluster.cpus0.statIssuedInstType_0::SimdFloatMisc 0 0.00% 54.77%
system.cpu_cluster.cpus0.statIssuedInstType_0::SimdFloatMult 0 0.00% 54.77%
system.cpu_cluster.cpus0.statIssuedInstType_0::SimdFloatMultAcc 0 0.00% 54.77%
system.cpu_cluster.cpus0.statIssuedInstType_0::SimdFloatMatMultAcc 0 0.00% 54.77%
system.cpu_cluster.cpus0.statIssuedInstType_0::SimdFloatSqrt 0 0.00% 54.77%
system.cpu_cluster.cpus0.statIssuedInstType_0::SimdReduceAdd 0 0.00% 54.77%
system.cpu_cluster.cpus0.statIssuedInstType_0::SimdReduceAlu 0 0.00% 54.77%
system.cpu_cluster.cpus0.statIssuedInstType_0::SimdReduceCmp 0 0.00% 54.77%
system.cpu_cluster.cpus0.statIssuedInstType_0::SimdFloatReduceAdd 0 0.00% 54.77%
system.cpu_cluster.cpus0.statIssuedInstType_0::SimdFloatReduceCmp 0 0.00% 54.77%
system.cpu_cluster.cpus0.statIssuedInstType_0::SimdAes 0 0.00% 54.77%
system.cpu_cluster.cpus0.statIssuedInstType_0::SimdAesMix 0 0.00% 54.77%
system.cpu_cluster.cpus0.statIssuedInstType_0::SimdSha1Hash 0 0.00% 54.77%
system.cpu_cluster.cpus0.statIssuedInstType_0::SimdSha1Hash2 0 0.00% 54.77%
system.cpu_cluster.cpus0.statIssuedInstType_0::SimdSha256Hash 0 0.00% 54.77%
system.cpu_cluster.cpus0.statIssuedInstType_0::SimdSha256Hash2 0 0.00% 54.77%
system.cpu_cluster.cpus0.statIssuedInstType_0::SimdShaSigma2 0 0.00% 54.77%
system.cpu_cluster.cpus0.statIssuedInstType_0::SimdShaSigma3 0 0.00% 54.77%
system.cpu_cluster.cpus0.statIssuedInstType_0::SimdPredAlu 0 0.00% 54.77%
system.cpu_cluster.cpus0.statIssuedInstType_0::Matrix 0 0.00% 54.77%
system.cpu_cluster.cpus0.statIssuedInstType_0::MatrixMov 0 0.00% 54.77%
system.cpu_cluster.cpus0.statIssuedInstType_0::MatrixOP 0 0.00% 54.77%
system.cpu_cluster.cpus0.statIssuedInstType_0::MemRead 11234939 29.06% 83.83%
system.cpu_cluster.cpus0.statIssuedInstType_0::MemWrite 6251428 16.17% 100.00%
system.cpu_cluster.cpus0.statIssuedInstType_0::FloatMemRead 0 0.00% 100.00%
system.cpu_cluster.cpus0.statIssuedInstType_0::FloatMemWrite 0 0.00% 100.00%
system.cpu_cluster.cpus0.statIssuedInstType_0::IprAccess 0 0.00% 100.00%
system.cpu_cluster.cpus0.statIssuedInstType_0::InstPrefetch 0 0.00% 100.00%
system.cpu_cluster.cpus0.statIssuedInstType_0::VectorUnitStrideLoad 0 0.00% 100.00%
system.cpu_cluster.cpus0.statIssuedInstType_0::VectorUnitStrideStore 0 0.00% 100.00%
system.cpu_cluster.cpus0.statIssuedInstType_0::VectorUnitStrideMaskLoad 0 0.00% 100.00%
system.cpu_cluster.cpus0.statIssuedInstType_0::VectorUnitStrideMaskStore 0 0.00% 100.00%
system.cpu_cluster.cpus0.statIssuedInstType_0::VectorStridedLoad 0 0.00% 100.00%
system.cpu_cluster.cpus0.statIssuedInstType_0::VectorStridedStore 0 0.00% 100.00%
system.cpu_cluster.cpus0.statIssuedInstType_0::VectorIndexedLoad 0 0.00% 100.00%
system.cpu_cluster.cpus0.statIssuedInstType_0::VectorIndexedStore 0 0.00% 100.00%
system.cpu_cluster.cpus0.statIssuedInstType_0::VectorUnitStrideFaultOnlyFirstLoad 0 0.00% 100.00%
system.cpu_cluster.cpus0.statIssuedInstType_0::VectorWholeRegisterLoad 0 0.00% 100.00%
system.cpu_cluster.cpus0.statIssuedInstType_0::VectorWholeRegisterStore 0 0.00% 100.00%
system.cpu_cluster.cpus0.statIssuedInstType_0::VectorIntegerArith 0 0.00% 100.00%
system.cpu_cluster.cpus0.statIssuedInstType_0::VectorFloatArith 0 0.00% 100.00%
system.cpu_cluster.cpus0.statIssuedInstType_0::VectorFloatConvert 0 0.00% 100.00%
system.cpu_cluster.cpus0.statIssuedInstType_0::VectorIntegerReduce 0 0.00% 100.00%
system.cpu_cluster.cpus0.statIssuedInstType_0::VectorFloatReduce 0 0.00% 100.00%
system.cpu_cluster.cpus0.statIssuedInstType_0::VectorMisc 0 0.00% 100.00%
system.cpu_cluster.cpus0.statIssuedInstType_0::VectorIntegerExtension 0 0.00% 100.00%
system.cpu_cluster.cpus0.statIssuedInstType_0::VectorConfig 0 0.00% 100.00%
system.cpu_cluster.cpus0.statIssuedInstType_0::total 38664966
system.cpu_cluster.cpus0.issueRate 0.932933
system.cpu_cluster.cpus0.fuBusy 858
system.cpu_cluster.cpus0.fuBusyRate 0.000022
system.cpu_cluster.cpus0.intInstQueueReads 116917940
system.cpu_cluster.cpus0.intInstQueueWrites 37781291
system.cpu_cluster.cpus0.intInstQueueWakeupAccesses 37762891
system.cpu_cluster.cpus0.fpInstQueueReads 0
system.cpu_cluster.cpus0.fpInstQueueWrites 0
system.cpu_cluster.cpus0.fpInstQueueWakeupAccesses 0
system.cpu_cluster.cpus0.vecInstQueueReads 1800256
system.cpu_cluster.cpus0.vecInstQueueWrites 900128
system.cpu_cluster.cpus0.vecInstQueueWakeupAccesses 900128
system.cpu_cluster.cpus0.intAluAccesses 37765663
system.cpu_cluster.cpus0.fpAluAccesses 0
system.cpu_cluster.cpus0.vecAluAccesses 900128
system.cpu_cluster.cpus0.numSquashedInsts 1610
system.cpu_cluster.cpus0.numSwp 0
system.cpu_cluster.cpus0.timesIdled 897
system.cpu_cluster.cpus0.idleCycles 59001
system.cpu_cluster.cpus0.MemDepUnit__0.insertedLoads 11235764
system.cpu_cluster.cpus0.MemDepUnit__0.insertedStores 6252025
system.cpu_cluster.cpus0.MemDepUnit__0.conflictingLoads 1263661
system.cpu_cluster.cpus0.MemDepUnit__0.conflictingStores 7425
system.cpu_cluster.cpus0.MemDepUnit__1.insertedLoads 0
system.cpu_cluster.cpus0.MemDepUnit__1.insertedStores 0
system.cpu_cluster.cpus0.MemDepUnit__1.conflictingLoads 0
system.cpu_cluster.cpus0.MemDepUnit__1.conflictingStores 0
system.cpu_cluster.cpus0.MemDepUnit__2.insertedLoads 0
system.cpu_cluster.cpus0.MemDepUnit__2.insertedStores 0
system.cpu_cluster.cpus0.MemDepUnit__2.conflictingLoads 0
system.cpu_cluster.cpus0.MemDepUnit__2.conflictingStores 0
system.cpu_cluster.cpus0.MemDepUnit__3.insertedLoads 0
system.cpu_cluster.cpus0.MemDepUnit__3.insertedStores 0
system.cpu_cluster.cpus0.MemDepUnit__3.conflictingLoads 0
system.cpu_cluster.cpus0.MemDepUnit__3.conflictingStores 0
system.cpu_cluster.cpus0.branchPred.lookups 4765527
system.cpu_cluster.cpus0.branchPred.condPredicted 2173516
system.cpu_cluster.cpus0.branchPred.condIncorrect 2243
system.cpu_cluster.cpus0.branchPred.BTBLookups 2651546
system.cpu_cluster.cpus0.branchPred.BTBUpdates 1994
system.cpu_cluster.cpus0.branchPred.BTBHits 2647500
system.cpu_cluster.cpus0.branchPred.BTBHitRatio 0.998474
system.cpu_cluster.cpus0.branchPred.RASUsed 964994
system.cpu_cluster.cpus0.branchPred.RASIncorrect 69
system.cpu_cluster.cpus0.branchPred.indirectLookups 392
system.cpu_cluster.cpus0.branchPred.indirectHits 206
system.cpu_cluster.cpus0.branchPred.indirectMisses 186
system.cpu_cluster.cpus0.branchPred.indirectMispredicted 70
system.cpu_cluster.cpus0.commit.commitSquashedInsts 10693
system.cpu_cluster.cpus0.commit.commitNonSpecStalls 661
system.cpu_cluster.cpus0.commit.branchMispredicts 1211
system.cpu_cluster.cpus0.commit.numCommittedDist::samples 41383316
system.cpu_cluster.cpus0.commit.numCommittedDist::mean 0.953035
system.cpu_cluster.cpus0.commit.numCommittedDist::stdev 1.146083
system.cpu_cluster.cpus0.commit.numCommittedDist::underflows 0 0.00% 0.00%
system.cpu_cluster.cpus0.commit.numCommittedDist::0 16312008 39.42% 39.42%
system.cpu_cluster.cpus0.commit.numCommittedDist::1 17149575 41.44% 80.86%
system.cpu_cluster.cpus0.commit.numCommittedDist::2 4555213 11.01% 91.87%
system.cpu_cluster.cpus0.commit.numCommittedDist::3 1684456 4.07% 95.94%
system.cpu_cluster.cpus0.commit.numCommittedDist::4 943454 2.28% 98.22%
system.cpu_cluster.cpus0.commit.numCommittedDist::5 289524 0.70% 98.91%
system.cpu_cluster.cpus0.commit.numCommittedDist::6 327822 0.79% 99.71%
system.cpu_cluster.cpus0.commit.numCommittedDist::7 32115 0.08% 99.78%
system.cpu_cluster.cpus0.commit.numCommittedDist::8 89149 0.22% 100.00%
system.cpu_cluster.cpus0.commit.numCommittedDist::overflows 0 0.00% 100.00%
system.cpu_cluster.cpus0.commit.numCommittedDist::min_value 0
system.cpu_cluster.cpus0.commit.numCommittedDist::max_value 8
system.cpu_cluster.cpus0.commit.numCommittedDist::total 41383316
system.cpu_cluster.cpus0.commit.amos 0
system.cpu_cluster.cpus0.commit.membars 392
system.cpu_cluster.cpus0.commit.functionCalls 962569
system.cpu_cluster.cpus0.commit.committedInstType_0::No_OpClass 8 0.00% 0.00%
system.cpu_cluster.cpus0.commit.committedInstType_0::IntAlu 21835158 55.36% 55.36%
system.cpu_cluster.cpus0.commit.committedInstType_0::IntMult 60460 0.15% 55.52%
system.cpu_cluster.cpus0.commit.committedInstType_0::IntDiv 60111 0.15% 55.67%
system.cpu_cluster.cpus0.commit.committedInstType_0::FloatAdd 0 0.00% 55.67%
system.cpu_cluster.cpus0.commit.committedInstType_0::FloatCmp 0 0.00% 55.67%
system.cpu_cluster.cpus0.commit.committedInstType_0::FloatCvt 0 0.00% 55.67%
system.cpu_cluster.cpus0.commit.committedInstType_0::FloatMult 0 0.00% 55.67%
system.cpu_cluster.cpus0.commit.committedInstType_0::FloatMultAcc 0 0.00% 55.67%
system.cpu_cluster.cpus0.commit.committedInstType_0::FloatDiv 0 0.00% 55.67%
system.cpu_cluster.cpus0.commit.committedInstType_0::FloatMisc 0 0.00% 55.67%
system.cpu_cluster.cpus0.commit.committedInstType_0::FloatSqrt 0 0.00% 55.67%
system.cpu_cluster.cpus0.commit.committedInstType_0::SimdAdd 0 0.00% 55.67%
system.cpu_cluster.cpus0.commit.committedInstType_0::SimdAddAcc 0 0.00% 55.67%
system.cpu_cluster.cpus0.commit.committedInstType_0::SimdAlu 0 0.00% 55.67%
system.cpu_cluster.cpus0.commit.committedInstType_0::SimdCmp 0 0.00% 55.67%
system.cpu_cluster.cpus0.commit.committedInstType_0::SimdCvt 0 0.00% 55.67%
system.cpu_cluster.cpus0.commit.committedInstType_0::SimdMisc 0 0.00% 55.67%
system.cpu_cluster.cpus0.commit.committedInstType_0::SimdMult 0 0.00% 55.67%
system.cpu_cluster.cpus0.commit.committedInstType_0::SimdMultAcc 0 0.00% 55.67%
system.cpu_cluster.cpus0.commit.committedInstType_0::SimdMatMultAcc 0 0.00% 55.67%
system.cpu_cluster.cpus0.commit.committedInstType_0::SimdShift 0 0.00% 55.67%
system.cpu_cluster.cpus0.commit.committedInstType_0::SimdShiftAcc 0 0.00% 55.67%
system.cpu_cluster.cpus0.commit.committedInstType_0::SimdDiv 0 0.00% 55.67%
system.cpu_cluster.cpus0.commit.committedInstType_0::SimdSqrt 0 0.00% 55.67%
system.cpu_cluster.cpus0.commit.committedInstType_0::SimdFloatAdd 0 0.00% 55.67%
system.cpu_cluster.cpus0.commit.committedInstType_0::SimdFloatAlu 0 0.00% 55.67%
system.cpu_cluster.cpus0.commit.committedInstType_0::SimdFloatCmp 0 0.00% 55.67%
system.cpu_cluster.cpus0.commit.committedInstType_0::SimdFloatCvt 0 0.00% 55.67%
system.cpu_cluster.cpus0.commit.committedInstType_0::SimdFloatDiv 0 0.00% 55.67%
system.cpu_cluster.cpus0.commit.committedInstType_0::SimdFloatMisc 0 0.00% 55.67%
system.cpu_cluster.cpus0.commit.committedInstType_0::SimdFloatMult 0 0.00% 55.67%
system.cpu_cluster.cpus0.commit.committedInstType_0::SimdFloatMultAcc 0 0.00% 55.67%
system.cpu_cluster.cpus0.commit.committedInstType_0::SimdFloatMatMultAcc 0 0.00% 55.67%
system.cpu_cluster.cpus0.commit.committedInstType_0::SimdFloatSqrt 0 0.00% 55.67%
system.cpu_cluster.cpus0.commit.committedInstType_0::SimdReduceAdd 0 0.00% 55.67%
system.cpu_cluster.cpus0.commit.committedInstType_0::SimdReduceAlu 0 0.00% 55.67%
system.cpu_cluster.cpus0.commit.committedInstType_0::SimdReduceCmp 0 0.00% 55.67%
system.cpu_cluster.cpus0.commit.committedInstType_0::SimdFloatReduceAdd 0 0.00% 55.67%
system.cpu_cluster.cpus0.commit.committedInstType_0::SimdFloatReduceCmp 0 0.00% 55.67%
system.cpu_cluster.cpus0.commit.committedInstType_0::SimdAes 0 0.00% 55.67%
system.cpu_cluster.cpus0.commit.committedInstType_0::SimdAesMix 0 0.00% 55.67%
system.cpu_cluster.cpus0.commit.committedInstType_0::SimdSha1Hash 0 0.00% 55.67%
system.cpu_cluster.cpus0.commit.committedInstType_0::SimdSha1Hash2 0 0.00% 55.67%
system.cpu_cluster.cpus0.commit.committedInstType_0::SimdSha256Hash 0 0.00% 55.67%
system.cpu_cluster.cpus0.commit.committedInstType_0::SimdSha256Hash2 0 0.00% 55.67%
system.cpu_cluster.cpus0.commit.committedInstType_0::SimdShaSigma2 0 0.00% 55.67%
system.cpu_cluster.cpus0.commit.committedInstType_0::SimdShaSigma3 0 0.00% 55.67%
system.cpu_cluster.cpus0.commit.committedInstType_0::SimdPredAlu 0 0.00% 55.67%
system.cpu_cluster.cpus0.commit.committedInstType_0::Matrix 0 0.00% 55.67%
system.cpu_cluster.cpus0.commit.committedInstType_0::MatrixMov 0 0.00% 55.67%
system.cpu_cluster.cpus0.commit.committedInstType_0::MatrixOP 0 0.00% 55.67%
system.cpu_cluster.cpus0.commit.committedInstType_0::MemRead 11233006 28.48% 84.15%
system.cpu_cluster.cpus0.commit.committedInstType_0::MemWrite 6250991 15.85% 100.00%
system.cpu_cluster.cpus0.commit.committedInstType_0::FloatMemRead 0 0.00% 100.00%
system.cpu_cluster.cpus0.commit.committedInstType_0::FloatMemWrite 0 0.00% 100.00%
system.cpu_cluster.cpus0.commit.committedInstType_0::IprAccess 0 0.00% 100.00%
system.cpu_cluster.cpus0.commit.committedInstType_0::InstPrefetch 0 0.00% 100.00%
system.cpu_cluster.cpus0.commit.committedInstType_0::VectorUnitStrideLoad 0 0.00% 100.00%
system.cpu_cluster.cpus0.commit.committedInstType_0::VectorUnitStrideStore 0 0.00% 100.00%
system.cpu_cluster.cpus0.commit.committedInstType_0::VectorUnitStrideMaskLoad 0 0.00% 100.00%
system.cpu_cluster.cpus0.commit.committedInstType_0::VectorUnitStrideMaskStore 0 0.00% 100.00%
system.cpu_cluster.cpus0.commit.committedInstType_0::VectorStridedLoad 0 0.00% 100.00%
system.cpu_cluster.cpus0.commit.committedInstType_0::VectorStridedStore 0 0.00% 100.00%
system.cpu_cluster.cpus0.commit.committedInstType_0::VectorIndexedLoad 0 0.00% 100.00%
system.cpu_cluster.cpus0.commit.committedInstType_0::VectorIndexedStore 0 0.00% 100.00%
system.cpu_cluster.cpus0.commit.committedInstType_0::VectorUnitStrideFaultOnlyFirstLoad 0 0.00% 100.00%
system.cpu_cluster.cpus0.commit.committedInstType_0::VectorWholeRegisterLoad 0 0.00% 100.00%
system.cpu_cluster.cpus0.commit.committedInstType_0::VectorWholeRegisterStore 0 0.00% 100.00%
system.cpu_cluster.cpus0.commit.committedInstType_0::VectorIntegerArith 0 0.00% 100.00%
system.cpu_cluster.cpus0.commit.committedInstType_0::VectorFloatArith 0 0.00% 100.00%
system.cpu_cluster.cpus0.commit.committedInstType_0::VectorFloatConvert 0 0.00% 100.00%
system.cpu_cluster.cpus0.commit.committedInstType_0::VectorIntegerReduce 0 0.00% 100.00%
system.cpu_cluster.cpus0.commit.committedInstType_0::VectorFloatReduce 0 0.00% 100.00%
system.cpu_cluster.cpus0.commit.committedInstType_0::VectorMisc 0 0.00% 100.00%
system.cpu_cluster.cpus0.commit.committedInstType_0::VectorIntegerExtension 0 0.00% 100.00%
system.cpu_cluster.cpus0.commit.committedInstType_0::VectorConfig 0 0.00% 100.00%
system.cpu_cluster.cpus0.commit.committedInstType_0::total 39439734
system.cpu_cluster.cpus0.commit.commitEligibleSamples 89149
system.cpu_cluster.cpus0.commitStats0.numInsts 37745747
system.cpu_cluster.cpus0.commitStats0.numOps 39439734
system.cpu_cluster.cpus0.commitStats0.numInstsNotNOP 36965128
system.cpu_cluster.cpus0.commitStats0.numOpsNotNOP 38659115
system.cpu_cluster.cpus0.commitStats0.cpi 1.097992
system.cpu_cluster.cpus0.commitStats0.ipc 0.910753
system.cpu_cluster.cpus0.commitStats0.numMemRefs 17483997
system.cpu_cluster.cpus0.commitStats0.numFpInsts 0
system.cpu_cluster.cpus0.commitStats0.numIntInsts 35895218
system.cpu_cluster.cpus0.commitStats0.numLoadInsts 11233006
system.cpu_cluster.cpus0.commitStats0.numStoreInsts 6250871
system.cpu_cluster.cpus0.commitStats0.numVecInsts 900128
system.cpu_cluster.cpus0.commitStats0.committedInstType::No_OpClass 8 0.00% 0.00%
system.cpu_cluster.cpus0.commitStats0.committedInstType::IntAlu 21835158 55.36% 55.36%
system.cpu_cluster.cpus0.commitStats0.committedInstType::IntMult 60460 0.15% 55.52%
system.cpu_cluster.cpus0.commitStats0.committedInstType::IntDiv 60111 0.15% 55.67%
system.cpu_cluster.cpus0.commitStats0.committedInstType::FloatAdd 0 0.00% 55.67%
system.cpu_cluster.cpus0.commitStats0.committedInstType::FloatCmp 0 0.00% 55.67%
system.cpu_cluster.cpus0.commitStats0.committedInstType::FloatCvt 0 0.00% 55.67%
system.cpu_cluster.cpus0.commitStats0.committedInstType::FloatMult 0 0.00% 55.67%
system.cpu_cluster.cpus0.commitStats0.committedInstType::FloatMultAcc 0 0.00% 55.67%
system.cpu_cluster.cpus0.commitStats0.committedInstType::FloatDiv 0 0.00% 55.67%
system.cpu_cluster.cpus0.commitStats0.committedInstType::FloatMisc 0 0.00% 55.67%
system.cpu_cluster.cpus0.commitStats0.committedInstType::FloatSqrt 0 0.00% 55.67%
system.cpu_cluster.cpus0.commitStats0.committedInstType::SimdAdd 0 0.00% 55.67%
system.cpu_cluster.cpus0.commitStats0.committedInstType::SimdAddAcc 0 0.00% 55.67%
system.cpu_cluster.cpus0.commitStats0.committedInstType::SimdAlu 0 0.00% 55.67%
system.cpu_cluster.cpus0.commitStats0.committedInstType::SimdCmp 0 0.00% 55.67%
system.cpu_cluster.cpus0.commitStats0.committedInstType::SimdCvt 0 0.00% 55.67%
system.cpu_cluster.cpus0.commitStats0.committedInstType::SimdMisc 0 0.00% 55.67%
system.cpu_cluster.cpus0.commitStats0.committedInstType::SimdMult 0 0.00% 55.67%
system.cpu_cluster.cpus0.commitStats0.committedInstType::SimdMultAcc 0 0.00% 55.67%
system.cpu_cluster.cpus0.commitStats0.committedInstType::SimdMatMultAcc 0 0.00% 55.67%
system.cpu_cluster.cpus0.commitStats0.committedInstType::SimdShift 0 0.00% 55.67%
system.cpu_cluster.cpus0.commitStats0.committedInstType::SimdShiftAcc 0 0.00% 55.67%
system.cpu_cluster.cpus0.commitStats0.committedInstType::SimdDiv 0 0.00% 55.67%
system.cpu_cluster.cpus0.commitStats0.committedInstType::SimdSqrt 0 0.00% 55.67%
system.cpu_cluster.cpus0.commitStats0.committedInstType::SimdFloatAdd 0 0.00% 55.67%
system.cpu_cluster.cpus0.commitStats0.committedInstType::SimdFloatAlu 0 0.00% 55.67%
system.cpu_cluster.cpus0.commitStats0.committedInstType::SimdFloatCmp 0 0.00% 55.67%
system.cpu_cluster.cpus0.commitStats0.committedInstType::SimdFloatCvt 0 0.00% 55.67%
system.cpu_cluster.cpus0.commitStats0.committedInstType::SimdFloatDiv 0 0.00% 55.67%
system.cpu_cluster.cpus0.commitStats0.committedInstType::SimdFloatMisc 0 0.00% 55.67%
system.cpu_cluster.cpus0.commitStats0.committedInstType::SimdFloatMult 0 0.00% 55.67%
system.cpu_cluster.cpus0.commitStats0.committedInstType::SimdFloatMultAcc 0 0.00% 55.67%
system.cpu_cluster.cpus0.commitStats0.committedInstType::SimdFloatMatMultAcc 0 0.00% 55.67%
system.cpu_cluster.cpus0.commitStats0.committedInstType::SimdFloatSqrt 0 0.00% 55.67%
system.cpu_cluster.cpus0.commitStats0.committedInstType::SimdReduceAdd 0 0.00% 55.67%
system.cpu_cluster.cpus0.commitStats0.committedInstType::SimdReduceAlu 0 0.00% 55.67%
system.cpu_cluster.cpus0.commitStats0.committedInstType::SimdReduceCmp 0 0.00% 55.67%
system.cpu_cluster.cpus0.commitStats0.committedInstType::SimdFloatReduceAdd 0 0.00% 55.67%
system.cpu_cluster.cpus0.commitStats0.committedInstType::SimdFloatReduceCmp 0 0.00% 55.67%
system.cpu_cluster.cpus0.commitStats0.committedInstType::SimdAes 0 0.00% 55.67%
system.cpu_cluster.cpus0.commitStats0.committedInstType::SimdAesMix 0 0.00% 55.67%
system.cpu_cluster.cpus0.commitStats0.committedInstType::SimdSha1Hash 0 0.00% 55.67%
system.cpu_cluster.cpus0.commitStats0.committedInstType::SimdSha1Hash2 0 0.00% 55.67%
system.cpu_cluster.cpus0.commitStats0.committedInstType::SimdSha256Hash 0 0.00% 55.67%
system.cpu_cluster.cpus0.commitStats0.committedInstType::SimdSha256Hash2 0 0.00% 55.67%
system.cpu_cluster.cpus0.commitStats0.committedInstType::SimdShaSigma2 0 0.00% 55.67%
system.cpu_cluster.cpus0.commitStats0.committedInstType::SimdShaSigma3 0 0.00% 55.67%
system.cpu_cluster.cpus0.commitStats0.committedInstType::SimdPredAlu 0 0.00% 55.67%
system.cpu_cluster.cpus0.commitStats0.committedInstType::Matrix 0 0.00% 55.67%
system.cpu_cluster.cpus0.commitStats0.committedInstType::MatrixMov 0 0.00% 55.67%
system.cpu_cluster.cpus0.commitStats0.committedInstType::MatrixOP 0 0.00% 55.67%
system.cpu_cluster.cpus0.commitStats0.committedInstType::MemRead 11233006 28.48% 84.15%
system.cpu_cluster.cpus0.commitStats0.committedInstType::MemWrite 6250991 15.85% 100.00%
system.cpu_cluster.cpus0.commitStats0.committedInstType::FloatMemRead 0 0.00% 100.00%
system.cpu_cluster.cpus0.commitStats0.committedInstType::FloatMemWrite 0 0.00% 100.00%
system.cpu_cluster.cpus0.commitStats0.committedInstType::IprAccess 0 0.00% 100.00%
system.cpu_cluster.cpus0.commitStats0.committedInstType::InstPrefetch 0 0.00% 100.00%
system.cpu_cluster.cpus0.commitStats0.committedInstType::VectorUnitStrideLoad 0 0.00% 100.00%
system.cpu_cluster.cpus0.commitStats0.committedInstType::VectorUnitStrideStore 0 0.00% 100.00%
system.cpu_cluster.cpus0.commitStats0.committedInstType::VectorUnitStrideMaskLoad 0 0.00% 100.00%
system.cpu_cluster.cpus0.commitStats0.committedInstType::VectorUnitStrideMaskStore 0 0.00% 100.00%
system.cpu_cluster.cpus0.commitStats0.committedInstType::VectorStridedLoad 0 0.00% 100.00%
system.cpu_cluster.cpus0.commitStats0.committedInstType::VectorStridedStore 0 0.00% 100.00%
system.cpu_cluster.cpus0.commitStats0.committedInstType::VectorIndexedLoad 0 0.00% 100.00%
system.cpu_cluster.cpus0.commitStats0.committedInstType::VectorIndexedStore 0 0.00% 100.00%
system.cpu_cluster.cpus0.commitStats0.committedInstType::VectorUnitStrideFaultOnlyFirstLoad 0 0.00% 100.00%
system.cpu_cluster.cpus0.commitStats0.committedInstType::VectorWholeRegisterLoad 0 0.00% 100.00%
system.cpu_cluster.cpus0.commitStats0.committedInstType::VectorWholeRegisterStore 0 0.00% 100.00%
system.cpu_cluster.cpus0.commitStats0.committedInstType::VectorIntegerArith 0 0.00% 100.00%
system.cpu_cluster.cpus0.commitStats0.committedInstType::VectorFloatArith 0 0.00% 100.00%
system.cpu_cluster.cpus0.commitStats0.committedInstType::VectorFloatConvert 0 0.00% 100.00%
system.cpu_cluster.cpus0.commitStats0.committedInstType::VectorIntegerReduce 0 0.00% 100.00%
system.cpu_cluster.cpus0.commitStats0.committedInstType::VectorFloatReduce 0 0.00% 100.00%
system.cpu_cluster.cpus0.commitStats0.committedInstType::VectorMisc 0 0.00% 100.00%
system.cpu_cluster.cpus0.commitStats0.committedInstType::VectorIntegerExtension 0 0.00% 100.00%
system.cpu_cluster.cpus0.commitStats0.committedInstType::VectorConfig 0 0.00% 100.00%
system.cpu_cluster.cpus0.commitStats0.committedInstType::total 39439734
system.cpu_cluster.cpus0.commitStats0.committedControl::IsControl 4752482
system.cpu_cluster.cpus0.commitStats0.committedControl::IsDirectControl 3789667
system.cpu_cluster.cpus0.commitStats0.committedControl::IsIndirectControl 962807
system.cpu_cluster.cpus0.commitStats0.committedControl::IsCondControl 2166869
system.cpu_cluster.cpus0.commitStats0.committedControl::IsUncondControl 2585605
system.cpu_cluster.cpus0.commitStats0.committedControl::IsCall 962569
system.cpu_cluster.cpus0.commitStats0.committedControl::IsReturn 962571
system.cpu_cluster.cpus0.dcache.demandHits::cpu_cluster.cpus0.data 14282517
system.cpu_cluster.cpus0.dcache.demandHits::total 14282517
system.cpu_cluster.cpus0.dcache.overallHits::cpu_cluster.cpus0.data 14282517
system.cpu_cluster.cpus0.dcache.overallHits::total 14282517
system.cpu_cluster.cpus0.dcache.demandMisses::cpu_cluster.cpus0.data 854
system.cpu_cluster.cpus0.dcache.demandMisses::total 854
system.cpu_cluster.cpus0.dcache.overallMisses::cpu_cluster.cpus0.data 854
system.cpu_cluster.cpus0.dcache.overallMisses::total 854
system.cpu_cluster.cpus0.dcache.demandMissLatency::cpu_cluster.cpus0.data 25019566
system.cpu_cluster.cpus0.dcache.demandMissLatency::total 25019566
system.cpu_cluster.cpus0.dcache.overallMissLatency::cpu_cluster.cpus0.data 25019566
system.cpu_cluster.cpus0.dcache.overallMissLatency::total 25019566
system.cpu_cluster.cpus0.dcache.demandAccesses::cpu_cluster.cpus0.data 14283371
system.cpu_cluster.cpus0.dcache.demandAccesses::total 14283371
system.cpu_cluster.cpus0.dcache.overallAccesses::cpu_cluster.cpus0.data 14283371
system.cpu_cluster.cpus0.dcache.overallAccesses::total 14283371
system.cpu_cluster.cpus0.dcache.demandMissRate::cpu_cluster.cpus0.data 0.000060
system.cpu_cluster.cpus0.dcache.demandMissRate::total 0.000060
system.cpu_cluster.cpus0.dcache.overallMissRate::cpu_cluster.cpus0.data 0.000060
system.cpu_cluster.cpus0.dcache.overallMissRate::total 0.000060
system.cpu_cluster.cpus0.dcache.demandAvgMissLatency::cpu_cluster.cpus0.data 29296.915691
system.cpu_cluster.cpus0.dcache.demandAvgMissLatency::total 29296.915691
system.cpu_cluster.cpus0.dcache.overallAvgMissLatency::cpu_cluster.cpus0.data 29296.915691
system.cpu_cluster.cpus0.dcache.overallAvgMissLatency::total 29296.915691
system.cpu_cluster.cpus0.dcache.blockedCycles::no_mshrs 325
system.cpu_cluster.cpus0.dcache.blockedCycles::no_targets 186
system.cpu_cluster.cpus0.dcache.blockedCauses::no_mshrs 59
system.cpu_cluster.cpus0.dcache.blockedCauses::no_targets 13
system.cpu_cluster.cpus0.dcache.avgBlocked::no_mshrs 5.508475
system.cpu_cluster.cpus0.dcache.avgBlocked::no_targets 14.307692
system.cpu_cluster.cpus0.dcache.writebacks::writebacks 529
system.cpu_cluster.cpus0.dcache.writebacks::total 529
system.cpu_cluster.cpus0.dcache.demandMshrHits::cpu_cluster.cpus0.data 257
system.cpu_cluster.cpus0.dcache.demandMshrHits::total 257
system.cpu_cluster.cpus0.dcache.overallMshrHits::cpu_cluster.cpus0.data 257
system.cpu_cluster.cpus0.dcache.overallMshrHits::total 257
system.cpu_cluster.cpus0.dcache.demandMshrMisses::cpu_cluster.cpus0.data 597
system.cpu_cluster.cpus0.dcache.demandMshrMisses::total 597
system.cpu_cluster.cpus0.dcache.overallMshrMisses::cpu_cluster.cpus0.data 597
system.cpu_cluster.cpus0.dcache.overallMshrMisses::total 597
system.cpu_cluster.cpus0.dcache.demandMshrMissLatency::cpu_cluster.cpus0.data 18582677
system.cpu_cluster.cpus0.dcache.demandMshrMissLatency::total 18582677
system.cpu_cluster.cpus0.dcache.overallMshrMissLatency::cpu_cluster.cpus0.data 18582677
system.cpu_cluster.cpus0.dcache.overallMshrMissLatency::total 18582677
system.cpu_cluster.cpus0.dcache.demandMshrMissRate::cpu_cluster.cpus0.data 0.000042
system.cpu_cluster.cpus0.dcache.demandMshrMissRate::total 0.000042
system.cpu_cluster.cpus0.dcache.overallMshrMissRate::cpu_cluster.cpus0.data 0.000042
system.cpu_cluster.cpus0.dcache.overallMshrMissRate::total 0.000042
system.cpu_cluster.cpus0.dcache.demandAvgMshrMissLatency::cpu_cluster.cpus0.data 31126.762144
system.cpu_cluster.cpus0.dcache.demandAvgMshrMissLatency::total 31126.762144
system.cpu_cluster.cpus0.dcache.overallAvgMshrMissLatency::cpu_cluster.cpus0.data 31126.762144
system.cpu_cluster.cpus0.dcache.overallAvgMshrMissLatency::total 31126.762144
system.cpu_cluster.cpus0.dcache.replacements 529
system.cpu_cluster.cpus0.dcache.ReadReq.hits::cpu_cluster.cpus0.data 8031991
system.cpu_cluster.cpus0.dcache.ReadReq.hits::total 8031991
system.cpu_cluster.cpus0.dcache.ReadReq.misses::cpu_cluster.cpus0.data 509
system.cpu_cluster.cpus0.dcache.ReadReq.misses::total 509
system.cpu_cluster.cpus0.dcache.ReadReq.missLatency::cpu_cluster.cpus0.data 18280368
system.cpu_cluster.cpus0.dcache.ReadReq.missLatency::total 18280368
system.cpu_cluster.cpus0.dcache.ReadReq.accesses::cpu_cluster.cpus0.data 8032500
system.cpu_cluster.cpus0.dcache.ReadReq.accesses::total 8032500
system.cpu_cluster.cpus0.dcache.ReadReq.missRate::cpu_cluster.cpus0.data 0.000063
system.cpu_cluster.cpus0.dcache.ReadReq.missRate::total 0.000063
system.cpu_cluster.cpus0.dcache.ReadReq.avgMissLatency::cpu_cluster.cpus0.data 35914.278978
system.cpu_cluster.cpus0.dcache.ReadReq.avgMissLatency::total 35914.278978
system.cpu_cluster.cpus0.dcache.ReadReq.mshrHits::cpu_cluster.cpus0.data 101
system.cpu_cluster.cpus0.dcache.ReadReq.mshrHits::total 101
system.cpu_cluster.cpus0.dcache.ReadReq.mshrMisses::cpu_cluster.cpus0.data 408
system.cpu_cluster.cpus0.dcache.ReadReq.mshrMisses::total 408
system.cpu_cluster.cpus0.dcache.ReadReq.mshrMissLatency::cpu_cluster.cpus0.data 14528790
system.cpu_cluster.cpus0.dcache.ReadReq.mshrMissLatency::total 14528790
system.cpu_cluster.cpus0.dcache.ReadReq.mshrMissRate::cpu_cluster.cpus0.data 0.000051
system.cpu_cluster.cpus0.dcache.ReadReq.mshrMissRate::total 0.000051
system.cpu_cluster.cpus0.dcache.ReadReq.avgMshrMissLatency::cpu_cluster.cpus0.data 35609.779412
system.cpu_cluster.cpus0.dcache.ReadReq.avgMshrMissLatency::total 35609.779412
system.cpu_cluster.cpus0.dcache.SwapReq.hits::cpu_cluster.cpus0.data 104
system.cpu_cluster.cpus0.dcache.SwapReq.hits::total 104
system.cpu_cluster.cpus0.dcache.SwapReq.misses::cpu_cluster.cpus0.data 16
system.cpu_cluster.cpus0.dcache.SwapReq.misses::total 16
system.cpu_cluster.cpus0.dcache.SwapReq.missLatency::cpu_cluster.cpus0.data 284382
system.cpu_cluster.cpus0.dcache.SwapReq.missLatency::total 284382
system.cpu_cluster.cpus0.dcache.SwapReq.accesses::cpu_cluster.cpus0.data 120
system.cpu_cluster.cpus0.dcache.SwapReq.accesses::total 120
system.cpu_cluster.cpus0.dcache.SwapReq.missRate::cpu_cluster.cpus0.data 0.133333
system.cpu_cluster.cpus0.dcache.SwapReq.missRate::total 0.133333
system.cpu_cluster.cpus0.dcache.SwapReq.avgMissLatency::cpu_cluster.cpus0.data 17773.875000
system.cpu_cluster.cpus0.dcache.SwapReq.avgMissLatency::total 17773.875000
system.cpu_cluster.cpus0.dcache.SwapReq.mshrMisses::cpu_cluster.cpus0.data 16
system.cpu_cluster.cpus0.dcache.SwapReq.mshrMisses::total 16
system.cpu_cluster.cpus0.dcache.SwapReq.mshrMissLatency::cpu_cluster.cpus0.data 263070
system.cpu_cluster.cpus0.dcache.SwapReq.mshrMissLatency::total 263070
system.cpu_cluster.cpus0.dcache.SwapReq.mshrMissRate::cpu_cluster.cpus0.data 0.133333
system.cpu_cluster.cpus0.dcache.SwapReq.mshrMissRate::total 0.133333
system.cpu_cluster.cpus0.dcache.SwapReq.avgMshrMissLatency::cpu_cluster.cpus0.data 16441.875000
system.cpu_cluster.cpus0.dcache.SwapReq.avgMshrMissLatency::total 16441.875000
system.cpu_cluster.cpus0.dcache.WriteLineReq.misses::cpu_cluster.cpus0.data 64
system.cpu_cluster.cpus0.dcache.WriteLineReq.misses::total 64
system.cpu_cluster.cpus0.dcache.WriteLineReq.missLatency::cpu_cluster.cpus0.data 1702914
system.cpu_cluster.cpus0.dcache.WriteLineReq.missLatency::total 1702914
system.cpu_cluster.cpus0.dcache.WriteLineReq.accesses::cpu_cluster.cpus0.data 64
system.cpu_cluster.cpus0.dcache.WriteLineReq.accesses::total 64
system.cpu_cluster.cpus0.dcache.WriteLineReq.missRate::cpu_cluster.cpus0.data 1
system.cpu_cluster.cpus0.dcache.WriteLineReq.missRate::total 1
system.cpu_cluster.cpus0.dcache.WriteLineReq.avgMissLatency::cpu_cluster.cpus0.data 26608.031250
system.cpu_cluster.cpus0.dcache.WriteLineReq.avgMissLatency::total 26608.031250
system.cpu_cluster.cpus0.dcache.WriteLineReq.mshrMisses::cpu_cluster.cpus0.data 64
system.cpu_cluster.cpus0.dcache.WriteLineReq.mshrMisses::total 64
system.cpu_cluster.cpus0.dcache.WriteLineReq.mshrMissLatency::cpu_cluster.cpus0.data 1617666
system.cpu_cluster.cpus0.dcache.WriteLineReq.mshrMissLatency::total 1617666
system.cpu_cluster.cpus0.dcache.WriteLineReq.mshrMissRate::cpu_cluster.cpus0.data 1
system.cpu_cluster.cpus0.dcache.WriteLineReq.mshrMissRate::total 1
system.cpu_cluster.cpus0.dcache.WriteLineReq.avgMshrMissLatency::cpu_cluster.cpus0.data 25276.031250
system.cpu_cluster.cpus0.dcache.WriteLineReq.avgMshrMissLatency::total 25276.031250
system.cpu_cluster.cpus0.dcache.WriteReq.hits::cpu_cluster.cpus0.data 6250526
system.cpu_cluster.cpus0.dcache.WriteReq.hits::total 6250526
system.cpu_cluster.cpus0.dcache.WriteReq.misses::cpu_cluster.cpus0.data 281
system.cpu_cluster.cpus0.dcache.WriteReq.misses::total 281
system.cpu_cluster.cpus0.dcache.WriteReq.missLatency::cpu_cluster.cpus0.data 5036284
system.cpu_cluster.cpus0.dcache.WriteReq.missLatency::total 5036284
system.cpu_cluster.cpus0.dcache.WriteReq.accesses::cpu_cluster.cpus0.data 6250807
system.cpu_cluster.cpus0.dcache.WriteReq.accesses::total 6250807
system.cpu_cluster.cpus0.dcache.WriteReq.missRate::cpu_cluster.cpus0.data 0.000045
system.cpu_cluster.cpus0.dcache.WriteReq.missRate::total 0.000045
system.cpu_cluster.cpus0.dcache.WriteReq.avgMissLatency::cpu_cluster.cpus0.data 17922.718861
system.cpu_cluster.cpus0.dcache.WriteReq.avgMissLatency::total 17922.718861
system.cpu_cluster.cpus0.dcache.WriteReq.mshrHits::cpu_cluster.cpus0.data 156
system.cpu_cluster.cpus0.dcache.WriteReq.mshrHits::total 156
system.cpu_cluster.cpus0.dcache.WriteReq.mshrMisses::cpu_cluster.cpus0.data 125
system.cpu_cluster.cpus0.dcache.WriteReq.mshrMisses::total 125
system.cpu_cluster.cpus0.dcache.WriteReq.mshrMissLatency::cpu_cluster.cpus0.data 2436221
system.cpu_cluster.cpus0.dcache.WriteReq.mshrMissLatency::total 2436221
system.cpu_cluster.cpus0.dcache.WriteReq.mshrMissRate::cpu_cluster.cpus0.data 0.000020
system.cpu_cluster.cpus0.dcache.WriteReq.mshrMissRate::total 0.000020
system.cpu_cluster.cpus0.dcache.WriteReq.avgMshrMissLatency::cpu_cluster.cpus0.data 19489.768000
system.cpu_cluster.cpus0.dcache.WriteReq.avgMshrMissLatency::total 19489.768000
system.cpu_cluster.cpus0.dcache.power_model.dynamicPower 257.100678
system.cpu_cluster.cpus0.dcache.power_model.staticPower 0.260640
system.cpu_cluster.cpus0.dcache.power_model.pm0.dynamicPower 257.100678
system.cpu_cluster.cpus0.dcache.power_model.pm0.staticPower 0.260640
system.cpu_cluster.cpus0.dcache.power_model.pm1.dynamicPower 0
system.cpu_cluster.cpus0.dcache.power_model.pm1.staticPower 0
system.cpu_cluster.cpus0.dcache.power_model.pm2.dynamicPower 0
system.cpu_cluster.cpus0.dcache.power_model.pm2.staticPower 0
system.cpu_cluster.cpus0.dcache.power_model.pm3.dynamicPower 0
system.cpu_cluster.cpus0.dcache.power_model.pm3.staticPower 0
system.cpu_cluster.cpus0.dcache.power_state.pwrStateResidencyTicks::ON 376593095934
system.cpu_cluster.cpus0.dcache.tags.tagsInUse 509.352595
system.cpu_cluster.cpus0.dcache.tags.totalRefs 3793386
system.cpu_cluster.cpus0.dcache.tags.sampledRefs 556
system.cpu_cluster.cpus0.dcache.tags.avgRefs 6822.636691
system.cpu_cluster.cpus0.dcache.tags.warmupTick 0
system.cpu_cluster.cpus0.dcache.tags.occupancies::cpu_cluster.cpus0.data 509.352595
system.cpu_cluster.cpus0.dcache.tags.avgOccs::cpu_cluster.cpus0.data 0.994829
system.cpu_cluster.cpus0.dcache.tags.avgOccs::total 0.994829
system.cpu_cluster.cpus0.dcache.tags.occupanciesTaskId::1024 506
system.cpu_cluster.cpus0.dcache.tags.ageTaskId_1024::2 16
system.cpu_cluster.cpus0.dcache.tags.ageTaskId_1024::3 32
system.cpu_cluster.cpus0.dcache.tags.ageTaskId_1024::4 458
system.cpu_cluster.cpus0.dcache.tags.ratioOccsTaskId::1024 0.988281
system.cpu_cluster.cpus0.dcache.tags.tagAccesses 28567532
system.cpu_cluster.cpus0.dcache.tags.dataAccesses 28567532
system.cpu_cluster.cpus0.dcache.tags.power_state.pwrStateResidencyTicks::UNDEFINED 376593095934
system.cpu_cluster.cpus0.decode.idleCycles 7534835
system.cpu_cluster.cpus0.decode.blockedCycles 20693314
system.cpu_cluster.cpus0.decode.runCycles 16811
system.cpu_cluster.cpus0.decode.unblockCycles 13138833
system.cpu_cluster.cpus0.decode.squashCycles 1742
system.cpu_cluster.cpus0.decode.branchResolved 2645702
system.cpu_cluster.cpus0.decode.branchMispred 1061
system.cpu_cluster.cpus0.decode.decodedInsts 39456360
system.cpu_cluster.cpus0.decode.squashedInsts 6213
system.cpu_cluster.cpus0.executeStats0.numInsts 38663342
system.cpu_cluster.cpus0.executeStats0.numNop 780803
system.cpu_cluster.cpus0.executeStats0.numBranches 4753077
system.cpu_cluster.cpus0.executeStats0.numLoadInsts 11234375
system.cpu_cluster.cpus0.executeStats0.numStoreInsts 6251200
system.cpu_cluster.cpus0.executeStats0.instRate 0.932894
system.cpu_cluster.cpus0.executeStats0.numCCRegReads 7212157
system.cpu_cluster.cpus0.executeStats0.numCCRegWrites 7212474
system.cpu_cluster.cpus0.executeStats0.numFpRegWrites 0
system.cpu_cluster.cpus0.executeStats0.numIntRegReads 41792152
system.cpu_cluster.cpus0.executeStats0.numIntRegWrites 26341270
system.cpu_cluster.cpus0.executeStats0.numMemRefs 17485575
system.cpu_cluster.cpus0.executeStats0.numMiscRegReads 58953970
system.cpu_cluster.cpus0.executeStats0.numMiscRegWrites 599
system.cpu_cluster.cpus0.executeStats0.numVecAluAccesses 0
system.cpu_cluster.cpus0.executeStats0.numVecRegReads 900128
system.cpu_cluster.cpus0.executeStats0.numDiscardedOps 0
system.cpu_cluster.cpus0.fetch.predictedBranches 3612700
system.cpu_cluster.cpus0.fetch.cycles 41332710
system.cpu_cluster.cpus0.fetch.squashCycles 5582
system.cpu_cluster.cpus0.fetch.tlbCycles 18
system.cpu_cluster.cpus0.fetch.miscStallCycles 667
system.cpu_cluster.cpus0.fetch.pendingTrapStallCycles 725
system.cpu_cluster.cpus0.fetch.pendingQuiesceStallCycles 43
system.cpu_cluster.cpus0.fetch.icacheWaitRetryStallCycles 951
system.cpu_cluster.cpus0.fetch.cacheLines 11564740
system.cpu_cluster.cpus0.fetch.icacheSquashes 863
system.cpu_cluster.cpus0.fetch.tlbSquashes 1
system.cpu_cluster.cpus0.fetch.nisnDist::samples 41385535
system.cpu_cluster.cpus0.fetch.nisnDist::mean 0.954910
system.cpu_cluster.cpus0.fetch.nisnDist::stdev 1.284082
system.cpu_cluster.cpus0.fetch.nisnDist::underflows 0 0.00% 0.00%
system.cpu_cluster.cpus0.fetch.nisnDist::0 23176469 56.00% 56.00%
system.cpu_cluster.cpus0.fetch.nisnDist::1 6401091 15.47% 71.47%
system.cpu_cluster.cpus0.fetch.nisnDist::2 4623765 11.17% 82.64%
system.cpu_cluster.cpus0.fetch.nisnDist::3 4963621 11.99% 94.63%
system.cpu_cluster.cpus0.fetch.nisnDist::4 2122973 5.13% 99.76%
system.cpu_cluster.cpus0.fetch.nisnDist::5 97616 0.24% 100.00%
system.cpu_cluster.cpus0.fetch.nisnDist::overflows 0 0.00% 100.00%
system.cpu_cluster.cpus0.fetch.nisnDist::min_value 0
system.cpu_cluster.cpus0.fetch.nisnDist::max_value 5
system.cpu_cluster.cpus0.fetch.nisnDist::total 41385535
system.cpu_cluster.cpus0.fetchStats0.numInsts 37816826
system.cpu_cluster.cpus0.fetchStats0.numOps 0
system.cpu_cluster.cpus0.fetchStats0.fetchRate 0.912468
system.cpu_cluster.cpus0.fetchStats0.numBranches 4765527
system.cpu_cluster.cpus0.fetchStats0.branchRate 0.114986
system.cpu_cluster.cpus0.fetchStats0.icacheStallCycles 47630
system.cpu_cluster.cpus0.fetchStats0.numFetchSuspends 0
system.cpu_cluster.cpus0.icache.demandHits::cpu_cluster.cpus0.inst 11562576
system.cpu_cluster.cpus0.icache.demandHits::total 11562576
system.cpu_cluster.cpus0.icache.overallHits::cpu_cluster.cpus0.inst 11562576
system.cpu_cluster.cpus0.icache.overallHits::total 11562576
system.cpu_cluster.cpus0.icache.demandMisses::cpu_cluster.cpus0.inst 2158
system.cpu_cluster.cpus0.icache.demandMisses::total 2158
system.cpu_cluster.cpus0.icache.overallMisses::cpu_cluster.cpus0.inst 2158
system.cpu_cluster.cpus0.icache.overallMisses::total 2158
system.cpu_cluster.cpus0.icache.demandMissLatency::cpu_cluster.cpus0.inst 110725808
system.cpu_cluster.cpus0.icache.demandMissLatency::total 110725808
system.cpu_cluster.cpus0.icache.overallMissLatency::cpu_cluster.cpus0.inst 110725808
system.cpu_cluster.cpus0.icache.overallMissLatency::total 110725808
system.cpu_cluster.cpus0.icache.demandAccesses::cpu_cluster.cpus0.inst 11564734
system.cpu_cluster.cpus0.icache.demandAccesses::total 11564734
system.cpu_cluster.cpus0.icache.overallAccesses::cpu_cluster.cpus0.inst 11564734
system.cpu_cluster.cpus0.icache.overallAccesses::total 11564734
system.cpu_cluster.cpus0.icache.demandMissRate::cpu_cluster.cpus0.inst 0.000187
system.cpu_cluster.cpus0.icache.demandMissRate::total 0.000187
system.cpu_cluster.cpus0.icache.overallMissRate::cpu_cluster.cpus0.inst 0.000187
system.cpu_cluster.cpus0.icache.overallMissRate::total 0.000187
system.cpu_cluster.cpus0.icache.demandAvgMissLatency::cpu_cluster.cpus0.inst 51309.456905
system.cpu_cluster.cpus0.icache.demandAvgMissLatency::total 51309.456905
system.cpu_cluster.cpus0.icache.overallAvgMissLatency::cpu_cluster.cpus0.inst 51309.456905
system.cpu_cluster.cpus0.icache.overallAvgMissLatency::total 51309.456905
system.cpu_cluster.cpus0.icache.blockedCycles::no_mshrs 18857
system.cpu_cluster.cpus0.icache.blockedCycles::no_targets 0
system.cpu_cluster.cpus0.icache.blockedCauses::no_mshrs 366
system.cpu_cluster.cpus0.icache.blockedCauses::no_targets 0
system.cpu_cluster.cpus0.icache.avgBlocked::no_mshrs 51.521858
system.cpu_cluster.cpus0.icache.avgBlocked::no_targets nan
system.cpu_cluster.cpus0.icache.writebacks::writebacks 1764
system.cpu_cluster.cpus0.icache.writebacks::total 1764
system.cpu_cluster.cpus0.icache.demandMshrHits::cpu_cluster.cpus0.inst 394
system.cpu_cluster.cpus0.icache.demandMshrHits::total 394
system.cpu_cluster.cpus0.icache.overallMshrHits::cpu_cluster.cpus0.inst 394
system.cpu_cluster.cpus0.icache.overallMshrHits::total 394
system.cpu_cluster.cpus0.icache.demandMshrMisses::cpu_cluster.cpus0.inst 1764
system.cpu_cluster.cpus0.icache.demandMshrMisses::total 1764
system.cpu_cluster.cpus0.icache.overallMshrMisses::cpu_cluster.cpus0.inst 1764
system.cpu_cluster.cpus0.icache.overallMshrMisses::total 1764
system.cpu_cluster.cpus0.icache.demandMshrMissLatency::cpu_cluster.cpus0.inst 91160730
system.cpu_cluster.cpus0.icache.demandMshrMissLatency::total 91160730
system.cpu_cluster.cpus0.icache.overallMshrMissLatency::cpu_cluster.cpus0.inst 91160730
system.cpu_cluster.cpus0.icache.overallMshrMissLatency::total 91160730
system.cpu_cluster.cpus0.icache.demandMshrMissRate::cpu_cluster.cpus0.inst 0.000153
system.cpu_cluster.cpus0.icache.demandMshrMissRate::total 0.000153
system.cpu_cluster.cpus0.icache.overallMshrMissRate::cpu_cluster.cpus0.inst 0.000153
system.cpu_cluster.cpus0.icache.overallMshrMissRate::total 0.000153
system.cpu_cluster.cpus0.icache.demandAvgMshrMissLatency::cpu_cluster.cpus0.inst 51678.418367
system.cpu_cluster.cpus0.icache.demandAvgMshrMissLatency::total 51678.418367
system.cpu_cluster.cpus0.icache.overallAvgMshrMissLatency::cpu_cluster.cpus0.inst 51678.418367
system.cpu_cluster.cpus0.icache.overallAvgMshrMissLatency::total 51678.418367
system.cpu_cluster.cpus0.icache.replacements 1764
system.cpu_cluster.cpus0.icache.ReadReq.hits::cpu_cluster.cpus0.inst 11562576
system.cpu_cluster.cpus0.icache.ReadReq.hits::total 11562576
system.cpu_cluster.cpus0.icache.ReadReq.misses::cpu_cluster.cpus0.inst 2158
system.cpu_cluster.cpus0.icache.ReadReq.misses::total 2158
system.cpu_cluster.cpus0.icache.ReadReq.missLatency::cpu_cluster.cpus0.inst 110725808
system.cpu_cluster.cpus0.icache.ReadReq.missLatency::total 110725808
system.cpu_cluster.cpus0.icache.ReadReq.accesses::cpu_cluster.cpus0.inst 11564734
system.cpu_cluster.cpus0.icache.ReadReq.accesses::total 11564734
system.cpu_cluster.cpus0.icache.ReadReq.missRate::cpu_cluster.cpus0.inst 0.000187
system.cpu_cluster.cpus0.icache.ReadReq.missRate::total 0.000187
system.cpu_cluster.cpus0.icache.ReadReq.avgMissLatency::cpu_cluster.cpus0.inst 51309.456905
system.cpu_cluster.cpus0.icache.ReadReq.avgMissLatency::total 51309.456905
system.cpu_cluster.cpus0.icache.ReadReq.mshrHits::cpu_cluster.cpus0.inst 394
system.cpu_cluster.cpus0.icache.ReadReq.mshrHits::total 394
system.cpu_cluster.cpus0.icache.ReadReq.mshrMisses::cpu_cluster.cpus0.inst 1764
system.cpu_cluster.cpus0.icache.ReadReq.mshrMisses::total 1764
system.cpu_cluster.cpus0.icache.ReadReq.mshrMissLatency::cpu_cluster.cpus0.inst 91160730
system.cpu_cluster.cpus0.icache.ReadReq.mshrMissLatency::total 91160730
system.cpu_cluster.cpus0.icache.ReadReq.mshrMissRate::cpu_cluster.cpus0.inst 0.000153
system.cpu_cluster.cpus0.icache.ReadReq.mshrMissRate::total 0.000153
system.cpu_cluster.cpus0.icache.ReadReq.avgMshrMissLatency::cpu_cluster.cpus0.inst 51678.418367
system.cpu_cluster.cpus0.icache.ReadReq.avgMshrMissLatency::total 51678.418367
system.cpu_cluster.cpus0.icache.power_model.dynamicPower 208.165212
system.cpu_cluster.cpus0.icache.power_model.staticPower 0.260640
system.cpu_cluster.cpus0.icache.power_model.pm0.dynamicPower 208.165212
system.cpu_cluster.cpus0.icache.power_model.pm0.staticPower 0.260640
system.cpu_cluster.cpus0.icache.power_model.pm1.dynamicPower 0
system.cpu_cluster.cpus0.icache.power_model.pm1.staticPower 0
system.cpu_cluster.cpus0.icache.power_model.pm2.dynamicPower 0
system.cpu_cluster.cpus0.icache.power_model.pm2.staticPower 0
system.cpu_cluster.cpus0.icache.power_model.pm3.dynamicPower 0
system.cpu_cluster.cpus0.icache.power_model.pm3.staticPower 0
system.cpu_cluster.cpus0.icache.power_state.pwrStateResidencyTicks::ON 376593095934
system.cpu_cluster.cpus0.icache.tags.tagsInUse 768
system.cpu_cluster.cpus0.icache.tags.totalRefs 5220444
system.cpu_cluster.cpus0.icache.tags.sampledRefs 1764
system.cpu_cluster.cpus0.icache.tags.avgRefs 2959.435374
system.cpu_cluster.cpus0.icache.tags.warmupTick 0
system.cpu_cluster.cpus0.icache.tags.occupancies::cpu_cluster.cpus0.inst 768
system.cpu_cluster.cpus0.icache.tags.avgOccs::cpu_cluster.cpus0.inst 1
system.cpu_cluster.cpus0.icache.tags.avgOccs::total 1
system.cpu_cluster.cpus0.icache.tags.occupanciesTaskId::1024 768
system.cpu_cluster.cpus0.icache.tags.ageTaskId_1024::2 63
system.cpu_cluster.cpus0.icache.tags.ageTaskId_1024::3 156
system.cpu_cluster.cpus0.icache.tags.ageTaskId_1024::4 549
system.cpu_cluster.cpus0.icache.tags.ratioOccsTaskId::1024 1
system.cpu_cluster.cpus0.icache.tags.tagAccesses 34695966
system.cpu_cluster.cpus0.icache.tags.dataAccesses 34695966
system.cpu_cluster.cpus0.icache.tags.power_state.pwrStateResidencyTicks::UNDEFINED 376593095934
system.cpu_cluster.cpus0.iew.idleCycles 0
system.cpu_cluster.cpus0.iew.squashCycles 1742
system.cpu_cluster.cpus0.iew.blockCycles 743
system.cpu_cluster.cpus0.iew.unblockCycles 18779711
system.cpu_cluster.cpus0.iew.dispatchedInsts 39450861
system.cpu_cluster.cpus0.iew.dispSquashedInsts 0
system.cpu_cluster.cpus0.iew.dispLoadInsts 11235764
system.cpu_cluster.cpus0.iew.dispStoreInsts 6252025
system.cpu_cluster.cpus0.iew.dispNonSpecInsts 479
system.cpu_cluster.cpus0.iew.iqFullEvents 4
system.cpu_cluster.cpus0.iew.lsqFullEvents 2
system.cpu_cluster.cpus0.iew.memOrderViolationEvents 428
system.cpu_cluster.cpus0.iew.predictedTakenIncorrect 256
system.cpu_cluster.cpus0.iew.predictedNotTakenIncorrect 1035
system.cpu_cluster.cpus0.iew.branchMispredicts 1291
system.cpu_cluster.cpus0.iew.instsToCommit 38663059
system.cpu_cluster.cpus0.iew.writebackCount 38663019
system.cpu_cluster.cpus0.iew.producerInst 25821163
system.cpu_cluster.cpus0.iew.consumerInst 35496023
system.cpu_cluster.cpus0.iew.wbRate 0.932886
system.cpu_cluster.cpus0.iew.wbFanout 0.727438
system.cpu_cluster.cpus0.lsq0.forwLoads 3201886
system.cpu_cluster.cpus0.lsq0.squashedLoads 2756
system.cpu_cluster.cpus0.lsq0.ignoredResponses 4
system.cpu_cluster.cpus0.lsq0.memOrderViolation 428
system.cpu_cluster.cpus0.lsq0.squashedStores 1032
system.cpu_cluster.cpus0.lsq0.rescheduledLoads 15
system.cpu_cluster.cpus0.lsq0.blockedByCache 61
system.cpu_cluster.cpus0.lsq0.loadToUse::samples 11233006
system.cpu_cluster.cpus0.lsq0.loadToUse::mean 3.722536
system.cpu_cluster.cpus0.lsq0.loadToUse::stdev 0.713145
system.cpu_cluster.cpus0.lsq0.loadToUse::0-9 11232538 100.00% 100.00%
system.cpu_cluster.cpus0.lsq0.loadToUse::10-19 87 0.00% 100.00%
system.cpu_cluster.cpus0.lsq0.loadToUse::20-29 208 0.00% 100.00%
system.cpu_cluster.cpus0.lsq0.loadToUse::30-39 9 0.00% 100.00%
system.cpu_cluster.cpus0.lsq0.loadToUse::40-49 4 0.00% 100.00%
system.cpu_cluster.cpus0.lsq0.loadToUse::50-59 2 0.00% 100.00%
system.cpu_cluster.cpus0.lsq0.loadToUse::60-69 1 0.00% 100.00%
system.cpu_cluster.cpus0.lsq0.loadToUse::70-79 1 0.00% 100.00%
system.cpu_cluster.cpus0.lsq0.loadToUse::80-89 3 0.00% 100.00%
system.cpu_cluster.cpus0.lsq0.loadToUse::90-99 12 0.00% 100.00%
system.cpu_cluster.cpus0.lsq0.loadToUse::100-109 29 0.00% 100.00%
system.cpu_cluster.cpus0.lsq0.loadToUse::110-119 8 0.00% 100.00%
system.cpu_cluster.cpus0.lsq0.loadToUse::120-129 62 0.00% 100.00%
system.cpu_cluster.cpus0.lsq0.loadToUse::130-139 3 0.00% 100.00%
system.cpu_cluster.cpus0.lsq0.loadToUse::140-149 35 0.00% 100.00%
system.cpu_cluster.cpus0.lsq0.loadToUse::270-279 1 0.00% 100.00%
system.cpu_cluster.cpus0.lsq0.loadToUse::overflows 3 0.00% 100.00%
system.cpu_cluster.cpus0.lsq0.loadToUse::min_value 3
system.cpu_cluster.cpus0.lsq0.loadToUse::max_value 671
system.cpu_cluster.cpus0.lsq0.loadToUse::total 11233006
system.cpu_cluster.cpus0.mmu.alignFaults 0
system.cpu_cluster.cpus0.mmu.prefetchFaults 0
system.cpu_cluster.cpus0.mmu.domainFaults 0
system.cpu_cluster.cpus0.mmu.permsFaults 28
system.cpu_cluster.cpus0.mmu.dtb.readHits 11234343
system.cpu_cluster.cpus0.mmu.dtb.readMisses 70
system.cpu_cluster.cpus0.mmu.dtb.writeHits 6251195
system.cpu_cluster.cpus0.mmu.dtb.writeMisses 10
system.cpu_cluster.cpus0.mmu.dtb.inserts 69
system.cpu_cluster.cpus0.mmu.dtb.flushTlb 0
system.cpu_cluster.cpus0.mmu.dtb.flushedEntries 0
system.cpu_cluster.cpus0.mmu.dtb.readAccesses 11234413
system.cpu_cluster.cpus0.mmu.dtb.writeAccesses 6251205
system.cpu_cluster.cpus0.mmu.dtb.hits 17485538
system.cpu_cluster.cpus0.mmu.dtb.misses 80
system.cpu_cluster.cpus0.mmu.dtb.accesses 17485618
system.cpu_cluster.cpus0.mmu.dtb_walker.walks 16
system.cpu_cluster.cpus0.mmu.dtb_walker.walksLongDescriptor 16
system.cpu_cluster.cpus0.mmu.dtb_walker.walksLongTerminatedAtLevel::Level3 5
system.cpu_cluster.cpus0.mmu.dtb_walker.squashedBefore 3
system.cpu_cluster.cpus0.mmu.dtb_walker.walkWaitTime::samples 13
system.cpu_cluster.cpus0.mmu.dtb_walker.walkWaitTime::0 13 100.00% 100.00%
system.cpu_cluster.cpus0.mmu.dtb_walker.walkWaitTime::total 13
system.cpu_cluster.cpus0.mmu.dtb_walker.walkServiceTime::samples 7
system.cpu_cluster.cpus0.mmu.dtb_walker.walkServiceTime::mean 33109.714286
system.cpu_cluster.cpus0.mmu.dtb_walker.walkServiceTime::gmean 9342.740672
system.cpu_cluster.cpus0.mmu.dtb_walker.walkServiceTime::stdev 70639.668435
system.cpu_cluster.cpus0.mmu.dtb_walker.walkServiceTime::0-16383 6 85.71% 85.71%
system.cpu_cluster.cpus0.mmu.dtb_walker.walkServiceTime::180224-196607 1 14.29% 100.00%
system.cpu_cluster.cpus0.mmu.dtb_walker.walkServiceTime::total 7
system.cpu_cluster.cpus0.mmu.dtb_walker.pendingWalks::samples -3323756854
system.cpu_cluster.cpus0.mmu.dtb_walker.pendingWalks::mean 0.911764
system.cpu_cluster.cpus0.mmu.dtb_walker.pendingWalks::stdev 0.283637
system.cpu_cluster.cpus0.mmu.dtb_walker.pendingWalks::0 -293273662 8.82% 8.82%
system.cpu_cluster.cpus0.mmu.dtb_walker.pendingWalks::1 -3030483192 91.18% 100.00%
system.cpu_cluster.cpus0.mmu.dtb_walker.pendingWalks::total -3323756854
system.cpu_cluster.cpus0.mmu.dtb_walker.pageSizes::4KiB 5 100.00% 100.00%
system.cpu_cluster.cpus0.mmu.dtb_walker.pageSizes::total 5
system.cpu_cluster.cpus0.mmu.dtb_walker.requestOrigin_Requested::Data 16
system.cpu_cluster.cpus0.mmu.dtb_walker.requestOrigin_Requested::Inst 0
system.cpu_cluster.cpus0.mmu.dtb_walker.requestOrigin_Requested::total 16
system.cpu_cluster.cpus0.mmu.dtb_walker.requestOrigin_Completed::Data 5
system.cpu_cluster.cpus0.mmu.dtb_walker.requestOrigin_Completed::Inst 0
system.cpu_cluster.cpus0.mmu.dtb_walker.requestOrigin_Completed::total 5
system.cpu_cluster.cpus0.mmu.dtb_walker.requestOrigin::total 21
system.cpu_cluster.cpus0.mmu.dtb_walker.power_state.pwrStateResidencyTicks::UNDEFINED 376593095934
system.cpu_cluster.cpus0.mmu.itb.instHits 11564579
system.cpu_cluster.cpus0.mmu.itb.instMisses 205
system.cpu_cluster.cpus0.mmu.itb.inserts 192
system.cpu_cluster.cpus0.mmu.itb.flushTlb 0
system.cpu_cluster.cpus0.mmu.itb.flushedEntries 0
system.cpu_cluster.cpus0.mmu.itb.instAccesses 11564784
system.cpu_cluster.cpus0.mmu.itb.hits 11564579
system.cpu_cluster.cpus0.mmu.itb.misses 205
system.cpu_cluster.cpus0.mmu.itb.accesses 11564784
system.cpu_cluster.cpus0.mmu.itb_walker.walks 15
system.cpu_cluster.cpus0.mmu.itb_walker.walksLongDescriptor 15
system.cpu_cluster.cpus0.mmu.itb_walker.walksLongTerminatedAtLevel::Level3 2
system.cpu_cluster.cpus0.mmu.itb_walker.walkWaitTime::samples 15
system.cpu_cluster.cpus0.mmu.itb_walker.walkWaitTime::0 15 100.00% 100.00%
system.cpu_cluster.cpus0.mmu.itb_walker.walkWaitTime::total 15
system.cpu_cluster.cpus0.mmu.itb_walker.walkServiceTime::samples 2
system.cpu_cluster.cpus0.mmu.itb_walker.walkServiceTime::mean 10656
system.cpu_cluster.cpus0.mmu.itb_walker.walkServiceTime::gmean 10656.000000
system.cpu_cluster.cpus0.mmu.itb_walker.walkServiceTime::10240-11263 2 100.00% 100.00%
system.cpu_cluster.cpus0.mmu.itb_walker.walkServiceTime::total 2
system.cpu_cluster.cpus0.mmu.itb_walker.pageSizes::4KiB 2 100.00% 100.00%
system.cpu_cluster.cpus0.mmu.itb_walker.pageSizes::total 2
system.cpu_cluster.cpus0.mmu.itb_walker.requestOrigin_Requested::Data 0
system.cpu_cluster.cpus0.mmu.itb_walker.requestOrigin_Requested::Inst 15
system.cpu_cluster.cpus0.mmu.itb_walker.requestOrigin_Requested::total 15
system.cpu_cluster.cpus0.mmu.itb_walker.requestOrigin_Completed::Data 0
system.cpu_cluster.cpus0.mmu.itb_walker.requestOrigin_Completed::Inst 2
system.cpu_cluster.cpus0.mmu.itb_walker.requestOrigin_Completed::total 2
system.cpu_cluster.cpus0.mmu.itb_walker.requestOrigin::total 17
system.cpu_cluster.cpus0.mmu.itb_walker.power_state.pwrStateResidencyTicks::UNDEFINED 376593095934
system.cpu_cluster.cpus0.mmu.l2_shared.partialHits 14
system.cpu_cluster.cpus0.mmu.l2_shared.instHits 192
system.cpu_cluster.cpus0.mmu.l2_shared.instMisses 13
system.cpu_cluster.cpus0.mmu.l2_shared.readHits 66
system.cpu_cluster.cpus0.mmu.l2_shared.readMisses 4
system.cpu_cluster.cpus0.mmu.l2_shared.writeHits 10
system.cpu_cluster.cpus0.mmu.l2_shared.inserts 8
system.cpu_cluster.cpus0.mmu.l2_shared.flushTlb 0
system.cpu_cluster.cpus0.mmu.l2_shared.flushedEntries 0
system.cpu_cluster.cpus0.mmu.l2_shared.readAccesses 70
system.cpu_cluster.cpus0.mmu.l2_shared.writeAccesses 10
system.cpu_cluster.cpus0.mmu.l2_shared.instAccesses 205
system.cpu_cluster.cpus0.mmu.l2_shared.hits 268
system.cpu_cluster.cpus0.mmu.l2_shared.misses 17
system.cpu_cluster.cpus0.mmu.l2_shared.accesses 285
system.cpu_cluster.cpus0.mmu.stage2_dtb.readHits 0
system.cpu_cluster.cpus0.mmu.stage2_dtb.readMisses 0
system.cpu_cluster.cpus0.mmu.stage2_dtb.writeHits 0
system.cpu_cluster.cpus0.mmu.stage2_dtb.writeMisses 0
system.cpu_cluster.cpus0.mmu.stage2_dtb.inserts 0
system.cpu_cluster.cpus0.mmu.stage2_dtb.flushTlb 0
system.cpu_cluster.cpus0.mmu.stage2_dtb.flushedEntries 0
system.cpu_cluster.cpus0.mmu.stage2_dtb.readAccesses 0
system.cpu_cluster.cpus0.mmu.stage2_dtb.writeAccesses 0
system.cpu_cluster.cpus0.mmu.stage2_dtb.hits 0
system.cpu_cluster.cpus0.mmu.stage2_dtb.misses 0
system.cpu_cluster.cpus0.mmu.stage2_dtb.accesses 0
system.cpu_cluster.cpus0.mmu.stage2_dtb_walker.walks 0
system.cpu_cluster.cpus0.mmu.stage2_dtb_walker.requestOrigin_Requested::Data 0
system.cpu_cluster.cpus0.mmu.stage2_dtb_walker.requestOrigin_Requested::Inst 0
system.cpu_cluster.cpus0.mmu.stage2_dtb_walker.requestOrigin_Requested::total 0
system.cpu_cluster.cpus0.mmu.stage2_dtb_walker.requestOrigin_Completed::Data 0
system.cpu_cluster.cpus0.mmu.stage2_dtb_walker.requestOrigin_Completed::Inst 0
system.cpu_cluster.cpus0.mmu.stage2_dtb_walker.requestOrigin_Completed::total 0
system.cpu_cluster.cpus0.mmu.stage2_dtb_walker.requestOrigin::total 0
system.cpu_cluster.cpus0.mmu.stage2_dtb_walker.power_state.pwrStateResidencyTicks::UNDEFINED 376593095934
system.cpu_cluster.cpus0.mmu.stage2_itb.instHits 0
system.cpu_cluster.cpus0.mmu.stage2_itb.instMisses 0
system.cpu_cluster.cpus0.mmu.stage2_itb.inserts 0
system.cpu_cluster.cpus0.mmu.stage2_itb.flushTlb 0
system.cpu_cluster.cpus0.mmu.stage2_itb.flushedEntries 0
system.cpu_cluster.cpus0.mmu.stage2_itb.instAccesses 0
system.cpu_cluster.cpus0.mmu.stage2_itb.hits 0
system.cpu_cluster.cpus0.mmu.stage2_itb.misses 0
system.cpu_cluster.cpus0.mmu.stage2_itb.accesses 0
system.cpu_cluster.cpus0.mmu.stage2_itb_walker.walks 0
system.cpu_cluster.cpus0.mmu.stage2_itb_walker.requestOrigin_Requested::Data 0
system.cpu_cluster.cpus0.mmu.stage2_itb_walker.requestOrigin_Requested::Inst 0
system.cpu_cluster.cpus0.mmu.stage2_itb_walker.requestOrigin_Requested::total 0
system.cpu_cluster.cpus0.mmu.stage2_itb_walker.requestOrigin_Completed::Data 0
system.cpu_cluster.cpus0.mmu.stage2_itb_walker.requestOrigin_Completed::Inst 0
system.cpu_cluster.cpus0.mmu.stage2_itb_walker.requestOrigin_Completed::total 0
system.cpu_cluster.cpus0.mmu.stage2_itb_walker.requestOrigin::total 0
system.cpu_cluster.cpus0.mmu.stage2_itb_walker.power_state.pwrStateResidencyTicks::UNDEFINED 376593095934
system.cpu_cluster.cpus0.power_model.dynamicPower 0.778802
system.cpu_cluster.cpus0.power_model.staticPower -0.285085
system.cpu_cluster.cpus0.power_model.pm0.dynamicPower 0.778802
system.cpu_cluster.cpus0.power_model.pm0.staticPower -0.285085
system.cpu_cluster.cpus0.power_model.pm1.dynamicPower 0
system.cpu_cluster.cpus0.power_model.pm1.staticPower 0
system.cpu_cluster.cpus0.power_model.pm2.dynamicPower 0
system.cpu_cluster.cpus0.power_model.pm2.staticPower 0
system.cpu_cluster.cpus0.power_model.pm3.dynamicPower 0
system.cpu_cluster.cpus0.power_model.pm3.staticPower 0
system.cpu_cluster.cpus0.power_state.pwrStateResidencyTicks::ON 29377730862
system.cpu_cluster.cpus0.rename.squashCycles 1742
system.cpu_cluster.cpus0.rename.idleCycles 9418082
system.cpu_cluster.cpus0.rename.blockCycles 18781844
system.cpu_cluster.cpus0.rename.serializeStallCycles 28454
system.cpu_cluster.cpus0.rename.runCycles 7510467
system.cpu_cluster.cpus0.rename.unblockCycles 5644946
system.cpu_cluster.cpus0.rename.renamedInsts 39453091
system.cpu_cluster.cpus0.rename.ROBFullEvents 154
system.cpu_cluster.cpus0.rename.IQFullEvents 8
system.cpu_cluster.cpus0.rename.LQFullEvents 3
system.cpu_cluster.cpus0.rename.SQFullEvents 180
system.cpu_cluster.cpus0.rename.renamedOperands 35906746
system.cpu_cluster.cpus0.rename.lookups 53229182
system.cpu_cluster.cpus0.rename.intLookups 41801704
system.cpu_cluster.cpus0.rename.vecLookups 600128
system.cpu_cluster.cpus0.rename.committedMaps 35893748
system.cpu_cluster.cpus0.rename.undoneMaps 12990
system.cpu_cluster.cpus0.rename.serializing 2746
system.cpu_cluster.cpus0.rename.tempSerializing 356
system.cpu_cluster.cpus0.rename.skidInsts 16928865
system.cpu_cluster.cpus0.rob.reads 80744394
system.cpu_cluster.cpus0.rob.writes 78903024
system.cpu_cluster.cpus0.thread_0.numInsts 36965128
system.cpu_cluster.cpus0.thread_0.numOps 38659115
system.cpu_cluster.cpus0.thread_0.numMemRefs 0
system.cpu_cluster.cpus1.numCycles 823872
system.cpu_cluster.cpus1.cpi 1.816248
system.cpu_cluster.cpus1.ipc 0.550586
system.cpu_cluster.cpus1.numWorkItemsStarted 0
system.cpu_cluster.cpus1.numWorkItemsCompleted 0
system.cpu_cluster.cpus1.instsAdded 575399
system.cpu_cluster.cpus1.nonSpecInstsAdded 5862
system.cpu_cluster.cpus1.instsIssued 580674
system.cpu_cluster.cpus1.squashedInstsIssued 232
system.cpu_cluster.cpus1.squashedInstsExamined 1275
system.cpu_cluster.cpus1.squashedOperandsExamined 1026
system.cpu_cluster.cpus1.squashedNonSpecRemoved 21
system.cpu_cluster.cpus1.numIssuedDist::samples 820658
system.cpu_cluster.cpus1.numIssuedDist::mean 0.707571
system.cpu_cluster.cpus1.numIssuedDist::stdev 0.454878
system.cpu_cluster.cpus1.numIssuedDist::underflows 0 0.00% 0.00%
system.cpu_cluster.cpus1.numIssuedDist::0 239984 29.24% 29.24%
system.cpu_cluster.cpus1.numIssuedDist::1 580674 70.76% 100.00%
system.cpu_cluster.cpus1.numIssuedDist::overflows 0 0.00% 100.00%
system.cpu_cluster.cpus1.numIssuedDist::min_value 0
system.cpu_cluster.cpus1.numIssuedDist::max_value 1
system.cpu_cluster.cpus1.numIssuedDist::total 820658
system.cpu_cluster.cpus1.statFuBusy::No_OpClass 0 0.00% 0.00%
system.cpu_cluster.cpus1.statFuBusy::IntAlu 0 0.00% 0.00%
system.cpu_cluster.cpus1.statFuBusy::IntMult 22 7.41% 7.41%
system.cpu_cluster.cpus1.statFuBusy::IntDiv 275 92.59% 100.00%
system.cpu_cluster.cpus1.statFuBusy::FloatAdd 0 0.00% 100.00%
system.cpu_cluster.cpus1.statFuBusy::FloatCmp 0 0.00% 100.00%
system.cpu_cluster.cpus1.statFuBusy::FloatCvt 0 0.00% 100.00%
system.cpu_cluster.cpus1.statFuBusy::FloatMult 0 0.00% 100.00%
system.cpu_cluster.cpus1.statFuBusy::FloatMultAcc 0 0.00% 100.00%
system.cpu_cluster.cpus1.statFuBusy::FloatDiv 0 0.00% 100.00%
system.cpu_cluster.cpus1.statFuBusy::FloatMisc 0 0.00% 100.00%
system.cpu_cluster.cpus1.statFuBusy::FloatSqrt 0 0.00% 100.00%
system.cpu_cluster.cpus1.statFuBusy::SimdAdd 0 0.00% 100.00%
system.cpu_cluster.cpus1.statFuBusy::SimdAddAcc 0 0.00% 100.00%
system.cpu_cluster.cpus1.statFuBusy::SimdAlu 0 0.00% 100.00%
system.cpu_cluster.cpus1.statFuBusy::SimdCmp 0 0.00% 100.00%
system.cpu_cluster.cpus1.statFuBusy::SimdCvt 0 0.00% 100.00%
system.cpu_cluster.cpus1.statFuBusy::SimdMisc 0 0.00% 100.00%
system.cpu_cluster.cpus1.statFuBusy::SimdMult 0 0.00% 100.00%
system.cpu_cluster.cpus1.statFuBusy::SimdMultAcc 0 0.00% 100.00%
system.cpu_cluster.cpus1.statFuBusy::SimdMatMultAcc 0 0.00% 100.00%
system.cpu_cluster.cpus1.statFuBusy::SimdShift 0 0.00% 100.00%
system.cpu_cluster.cpus1.statFuBusy::SimdShiftAcc 0 0.00% 100.00%
system.cpu_cluster.cpus1.statFuBusy::SimdDiv 0 0.00% 100.00%
system.cpu_cluster.cpus1.statFuBusy::SimdSqrt 0 0.00% 100.00%
system.cpu_cluster.cpus1.statFuBusy::SimdFloatAdd 0 0.00% 100.00%
system.cpu_cluster.cpus1.statFuBusy::SimdFloatAlu 0 0.00% 100.00%
system.cpu_cluster.cpus1.statFuBusy::SimdFloatCmp 0 0.00% 100.00%
system.cpu_cluster.cpus1.statFuBusy::SimdFloatCvt 0 0.00% 100.00%
system.cpu_cluster.cpus1.statFuBusy::SimdFloatDiv 0 0.00% 100.00%
system.cpu_cluster.cpus1.statFuBusy::SimdFloatMisc 0 0.00% 100.00%
system.cpu_cluster.cpus1.statFuBusy::SimdFloatMult 0 0.00% 100.00%
system.cpu_cluster.cpus1.statFuBusy::SimdFloatMultAcc 0 0.00% 100.00%
system.cpu_cluster.cpus1.statFuBusy::SimdFloatMatMultAcc 0 0.00% 100.00%
system.cpu_cluster.cpus1.statFuBusy::SimdFloatSqrt 0 0.00% 100.00%
system.cpu_cluster.cpus1.statFuBusy::SimdReduceAdd 0 0.00% 100.00%
system.cpu_cluster.cpus1.statFuBusy::SimdReduceAlu 0 0.00% 100.00%
system.cpu_cluster.cpus1.statFuBusy::SimdReduceCmp 0 0.00% 100.00%
system.cpu_cluster.cpus1.statFuBusy::SimdFloatReduceAdd 0 0.00% 100.00%
system.cpu_cluster.cpus1.statFuBusy::SimdFloatReduceCmp 0 0.00% 100.00%
system.cpu_cluster.cpus1.statFuBusy::SimdAes 0 0.00% 100.00%
system.cpu_cluster.cpus1.statFuBusy::SimdAesMix 0 0.00% 100.00%
system.cpu_cluster.cpus1.statFuBusy::SimdSha1Hash 0 0.00% 100.00%
system.cpu_cluster.cpus1.statFuBusy::SimdSha1Hash2 0 0.00% 100.00%
system.cpu_cluster.cpus1.statFuBusy::SimdSha256Hash 0 0.00% 100.00%
system.cpu_cluster.cpus1.statFuBusy::SimdSha256Hash2 0 0.00% 100.00%
system.cpu_cluster.cpus1.statFuBusy::SimdShaSigma2 0 0.00% 100.00%
system.cpu_cluster.cpus1.statFuBusy::SimdShaSigma3 0 0.00% 100.00%
system.cpu_cluster.cpus1.statFuBusy::SimdPredAlu 0 0.00% 100.00%
system.cpu_cluster.cpus1.statFuBusy::Matrix 0 0.00% 100.00%
system.cpu_cluster.cpus1.statFuBusy::MatrixMov 0 0.00% 100.00%
system.cpu_cluster.cpus1.statFuBusy::MatrixOP 0 0.00% 100.00%
system.cpu_cluster.cpus1.statFuBusy::MemRead 0 0.00% 100.00%
system.cpu_cluster.cpus1.statFuBusy::MemWrite 0 0.00% 100.00%
system.cpu_cluster.cpus1.statFuBusy::FloatMemRead 0 0.00% 100.00%
system.cpu_cluster.cpus1.statFuBusy::FloatMemWrite 0 0.00% 100.00%
system.cpu_cluster.cpus1.statFuBusy::IprAccess 0 0.00% 100.00%
system.cpu_cluster.cpus1.statFuBusy::InstPrefetch 0 0.00% 100.00%
system.cpu_cluster.cpus1.statFuBusy::VectorUnitStrideLoad 0 0.00% 100.00%
system.cpu_cluster.cpus1.statFuBusy::VectorUnitStrideStore 0 0.00% 100.00%
system.cpu_cluster.cpus1.statFuBusy::VectorUnitStrideMaskLoad 0 0.00% 100.00%
system.cpu_cluster.cpus1.statFuBusy::VectorUnitStrideMaskStore 0 0.00% 100.00%
system.cpu_cluster.cpus1.statFuBusy::VectorStridedLoad 0 0.00% 100.00%
system.cpu_cluster.cpus1.statFuBusy::VectorStridedStore 0 0.00% 100.00%
system.cpu_cluster.cpus1.statFuBusy::VectorIndexedLoad 0 0.00% 100.00%
system.cpu_cluster.cpus1.statFuBusy::VectorIndexedStore 0 0.00% 100.00%
system.cpu_cluster.cpus1.statFuBusy::VectorUnitStrideFaultOnlyFirstLoad 0 0.00% 100.00%
system.cpu_cluster.cpus1.statFuBusy::VectorWholeRegisterLoad 0 0.00% 100.00%
system.cpu_cluster.cpus1.statFuBusy::VectorWholeRegisterStore 0 0.00% 100.00%
system.cpu_cluster.cpus1.statFuBusy::VectorIntegerArith 0 0.00% 100.00%
system.cpu_cluster.cpus1.statFuBusy::VectorFloatArith 0 0.00% 100.00%
system.cpu_cluster.cpus1.statFuBusy::VectorFloatConvert 0 0.00% 100.00%
system.cpu_cluster.cpus1.statFuBusy::VectorIntegerReduce 0 0.00% 100.00%
system.cpu_cluster.cpus1.statFuBusy::VectorFloatReduce 0 0.00% 100.00%
system.cpu_cluster.cpus1.statFuBusy::VectorMisc 0 0.00% 100.00%
system.cpu_cluster.cpus1.statFuBusy::VectorIntegerExtension 0 0.00% 100.00%
system.cpu_cluster.cpus1.statFuBusy::VectorConfig 0 0.00% 100.00%
system.cpu_cluster.cpus1.statIssuedInstType_0::No_OpClass 0 0.00% 0.00%
system.cpu_cluster.cpus1.statIssuedInstType_0::IntAlu 415466 71.55% 71.55%
system.cpu_cluster.cpus1.statIssuedInstType_0::IntMult 81 0.01% 71.56%
system.cpu_cluster.cpus1.statIssuedInstType_0::IntDiv 39 0.01% 71.57%
system.cpu_cluster.cpus1.statIssuedInstType_0::FloatAdd 0 0.00% 71.57%
system.cpu_cluster.cpus1.statIssuedInstType_0::FloatCmp 0 0.00% 71.57%
system.cpu_cluster.cpus1.statIssuedInstType_0::FloatCvt 0 0.00% 71.57%
system.cpu_cluster.cpus1.statIssuedInstType_0::FloatMult 0 0.00% 71.57%
system.cpu_cluster.cpus1.statIssuedInstType_0::FloatMultAcc 0 0.00% 71.57%
system.cpu_cluster.cpus1.statIssuedInstType_0::FloatDiv 0 0.00% 71.57%
system.cpu_cluster.cpus1.statIssuedInstType_0::FloatMisc 0 0.00% 71.57%
system.cpu_cluster.cpus1.statIssuedInstType_0::FloatSqrt 0 0.00% 71.57%
system.cpu_cluster.cpus1.statIssuedInstType_0::SimdAdd 0 0.00% 71.57%
system.cpu_cluster.cpus1.statIssuedInstType_0::SimdAddAcc 0 0.00% 71.57%
system.cpu_cluster.cpus1.statIssuedInstType_0::SimdAlu 0 0.00% 71.57%
system.cpu_cluster.cpus1.statIssuedInstType_0::SimdCmp 0 0.00% 71.57%
system.cpu_cluster.cpus1.statIssuedInstType_0::SimdCvt 0 0.00% 71.57%
system.cpu_cluster.cpus1.statIssuedInstType_0::SimdMisc 0 0.00% 71.57%
system.cpu_cluster.cpus1.statIssuedInstType_0::SimdMult 0 0.00% 71.57%
system.cpu_cluster.cpus1.statIssuedInstType_0::SimdMultAcc 0 0.00% 71.57%
system.cpu_cluster.cpus1.statIssuedInstType_0::SimdMatMultAcc 0 0.00% 71.57%
system.cpu_cluster.cpus1.statIssuedInstType_0::SimdShift 0 0.00% 71.57%
system.cpu_cluster.cpus1.statIssuedInstType_0::SimdShiftAcc 0 0.00% 71.57%
system.cpu_cluster.cpus1.statIssuedInstType_0::SimdDiv 0 0.00% 71.57%
system.cpu_cluster.cpus1.statIssuedInstType_0::SimdSqrt 0 0.00% 71.57%
system.cpu_cluster.cpus1.statIssuedInstType_0::SimdFloatAdd 0 0.00% 71.57%
system.cpu_cluster.cpus1.statIssuedInstType_0::SimdFloatAlu 0 0.00% 71.57%
system.cpu_cluster.cpus1.statIssuedInstType_0::SimdFloatCmp 0 0.00% 71.57%
system.cpu_cluster.cpus1.statIssuedInstType_0::SimdFloatCvt 0 0.00% 71.57%
system.cpu_cluster.cpus1.statIssuedInstType_0::SimdFloatDiv 0 0.00% 71.57%
system.cpu_cluster.cpus1.statIssuedInstType_0::SimdFloatMisc 0 0.00% 71.57%
system.cpu_cluster.cpus1.statIssuedInstType_0::SimdFloatMult 0 0.00% 71.57%
system.cpu_cluster.cpus1.statIssuedInstType_0::SimdFloatMultAcc 0 0.00% 71.57%
system.cpu_cluster.cpus1.statIssuedInstType_0::SimdFloatMatMultAcc 0 0.00% 71.57%
system.cpu_cluster.cpus1.statIssuedInstType_0::SimdFloatSqrt 0 0.00% 71.57%
system.cpu_cluster.cpus1.statIssuedInstType_0::SimdReduceAdd 0 0.00% 71.57%
system.cpu_cluster.cpus1.statIssuedInstType_0::SimdReduceAlu 0 0.00% 71.57%
system.cpu_cluster.cpus1.statIssuedInstType_0::SimdReduceCmp 0 0.00% 71.57%
system.cpu_cluster.cpus1.statIssuedInstType_0::SimdFloatReduceAdd 0 0.00% 71.57%
system.cpu_cluster.cpus1.statIssuedInstType_0::SimdFloatReduceCmp 0 0.00% 71.57%
system.cpu_cluster.cpus1.statIssuedInstType_0::SimdAes 0 0.00% 71.57%
system.cpu_cluster.cpus1.statIssuedInstType_0::SimdAesMix 0 0.00% 71.57%
system.cpu_cluster.cpus1.statIssuedInstType_0::SimdSha1Hash 0 0.00% 71.57%
system.cpu_cluster.cpus1.statIssuedInstType_0::SimdSha1Hash2 0 0.00% 71.57%
system.cpu_cluster.cpus1.statIssuedInstType_0::SimdSha256Hash 0 0.00% 71.57%
system.cpu_cluster.cpus1.statIssuedInstType_0::SimdSha256Hash2 0 0.00% 71.57%
system.cpu_cluster.cpus1.statIssuedInstType_0::SimdShaSigma2 0 0.00% 71.57%
system.cpu_cluster.cpus1.statIssuedInstType_0::SimdShaSigma3 0 0.00% 71.57%
system.cpu_cluster.cpus1.statIssuedInstType_0::SimdPredAlu 0 0.00% 71.57%
system.cpu_cluster.cpus1.statIssuedInstType_0::Matrix 0 0.00% 71.57%
system.cpu_cluster.cpus1.statIssuedInstType_0::MatrixMov 0 0.00% 71.57%
system.cpu_cluster.cpus1.statIssuedInstType_0::MatrixOP 0 0.00% 71.57%
system.cpu_cluster.cpus1.statIssuedInstType_0::MemRead 82316 14.18% 85.75%
system.cpu_cluster.cpus1.statIssuedInstType_0::MemWrite 82772 14.25% 100.00%
system.cpu_cluster.cpus1.statIssuedInstType_0::FloatMemRead 0 0.00% 100.00%
system.cpu_cluster.cpus1.statIssuedInstType_0::FloatMemWrite 0 0.00% 100.00%
system.cpu_cluster.cpus1.statIssuedInstType_0::IprAccess 0 0.00% 100.00%
system.cpu_cluster.cpus1.statIssuedInstType_0::InstPrefetch 0 0.00% 100.00%
system.cpu_cluster.cpus1.statIssuedInstType_0::VectorUnitStrideLoad 0 0.00% 100.00%
system.cpu_cluster.cpus1.statIssuedInstType_0::VectorUnitStrideStore 0 0.00% 100.00%
system.cpu_cluster.cpus1.statIssuedInstType_0::VectorUnitStrideMaskLoad 0 0.00% 100.00%
system.cpu_cluster.cpus1.statIssuedInstType_0::VectorUnitStrideMaskStore 0 0.00% 100.00%
system.cpu_cluster.cpus1.statIssuedInstType_0::VectorStridedLoad 0 0.00% 100.00%
system.cpu_cluster.cpus1.statIssuedInstType_0::VectorStridedStore 0 0.00% 100.00%
system.cpu_cluster.cpus1.statIssuedInstType_0::VectorIndexedLoad 0 0.00% 100.00%
system.cpu_cluster.cpus1.statIssuedInstType_0::VectorIndexedStore 0 0.00% 100.00%
system.cpu_cluster.cpus1.statIssuedInstType_0::VectorUnitStrideFaultOnlyFirstLoad 0 0.00% 100.00%
system.cpu_cluster.cpus1.statIssuedInstType_0::VectorWholeRegisterLoad 0 0.00% 100.00%
system.cpu_cluster.cpus1.statIssuedInstType_0::VectorWholeRegisterStore 0 0.00% 100.00%
system.cpu_cluster.cpus1.statIssuedInstType_0::VectorIntegerArith 0 0.00% 100.00%
system.cpu_cluster.cpus1.statIssuedInstType_0::VectorFloatArith 0 0.00% 100.00%
system.cpu_cluster.cpus1.statIssuedInstType_0::VectorFloatConvert 0 0.00% 100.00%
system.cpu_cluster.cpus1.statIssuedInstType_0::VectorIntegerReduce 0 0.00% 100.00%
system.cpu_cluster.cpus1.statIssuedInstType_0::VectorFloatReduce 0 0.00% 100.00%
system.cpu_cluster.cpus1.statIssuedInstType_0::VectorMisc 0 0.00% 100.00%
system.cpu_cluster.cpus1.statIssuedInstType_0::VectorIntegerExtension 0 0.00% 100.00%
system.cpu_cluster.cpus1.statIssuedInstType_0::VectorConfig 0 0.00% 100.00%
system.cpu_cluster.cpus1.statIssuedInstType_0::total 580674
system.cpu_cluster.cpus1.issueRate 0.704811
system.cpu_cluster.cpus1.fuBusy 297
system.cpu_cluster.cpus1.fuBusyRate 0.000511
system.cpu_cluster.cpus1.intInstQueueReads 1982535
system.cpu_cluster.cpus1.intInstQueueWrites 582538
system.cpu_cluster.cpus1.intInstQueueWakeupAccesses 580465
system.cpu_cluster.cpus1.fpInstQueueReads 0
system.cpu_cluster.cpus1.fpInstQueueWrites 0
system.cpu_cluster.cpus1.fpInstQueueWakeupAccesses 0
system.cpu_cluster.cpus1.vecInstQueueReads 0
system.cpu_cluster.cpus1.vecInstQueueWrites 0
system.cpu_cluster.cpus1.vecInstQueueWakeupAccesses 0
system.cpu_cluster.cpus1.intAluAccesses 580971
system.cpu_cluster.cpus1.fpAluAccesses 0
system.cpu_cluster.cpus1.vecAluAccesses 0
system.cpu_cluster.cpus1.numSquashedInsts 165
system.cpu_cluster.cpus1.numSwp 0
system.cpu_cluster.cpus1.timesIdled 390
system.cpu_cluster.cpus1.idleCycles 3214
system.cpu_cluster.cpus1.quiesceCycles 40721131
system.cpu_cluster.cpus1.MemDepUnit__0.insertedLoads 82417
system.cpu_cluster.cpus1.MemDepUnit__0.insertedStores 82813
system.cpu_cluster.cpus1.MemDepUnit__0.conflictingLoads 9556
system.cpu_cluster.cpus1.MemDepUnit__0.conflictingStores 3047
system.cpu_cluster.cpus1.MemDepUnit__1.insertedLoads 0
system.cpu_cluster.cpus1.MemDepUnit__1.insertedStores 0
system.cpu_cluster.cpus1.MemDepUnit__1.conflictingLoads 0
system.cpu_cluster.cpus1.MemDepUnit__1.conflictingStores 0
system.cpu_cluster.cpus1.MemDepUnit__2.insertedLoads 0
system.cpu_cluster.cpus1.MemDepUnit__2.insertedStores 0
system.cpu_cluster.cpus1.MemDepUnit__2.conflictingLoads 0
system.cpu_cluster.cpus1.MemDepUnit__2.conflictingStores 0
[...]
system.mem_ctrls.rdQLenPdf::49 0
system.mem_ctrls.rdQLenPdf::50 0
system.mem_ctrls.rdQLenPdf::51 0
system.mem_ctrls.rdQLenPdf::52 0
system.mem_ctrls.rdQLenPdf::53 0
system.mem_ctrls.rdQLenPdf::54 0
system.mem_ctrls.rdQLenPdf::55 0
system.mem_ctrls.rdQLenPdf::56 0
system.mem_ctrls.rdQLenPdf::57 0
system.mem_ctrls.rdQLenPdf::58 0
system.mem_ctrls.rdQLenPdf::59 0
system.mem_ctrls.rdQLenPdf::60 0
system.mem_ctrls.rdQLenPdf::61 0
system.mem_ctrls.rdQLenPdf::62 0
system.mem_ctrls.rdQLenPdf::63 0
system.mem_ctrls.wrQLenPdf::0 0
system.mem_ctrls.wrQLenPdf::1 0
system.mem_ctrls.wrQLenPdf::2 0
system.mem_ctrls.wrQLenPdf::3 0
system.mem_ctrls.wrQLenPdf::4 0
system.mem_ctrls.wrQLenPdf::5 0
system.mem_ctrls.wrQLenPdf::6 0
system.mem_ctrls.wrQLenPdf::7 0
system.mem_ctrls.wrQLenPdf::8 0
system.mem_ctrls.wrQLenPdf::9 0
system.mem_ctrls.wrQLenPdf::10 0
system.mem_ctrls.wrQLenPdf::11 0
system.mem_ctrls.wrQLenPdf::12 0
system.mem_ctrls.wrQLenPdf::13 0
system.mem_ctrls.wrQLenPdf::14 0
system.mem_ctrls.wrQLenPdf::15 0
system.mem_ctrls.wrQLenPdf::16 0
system.mem_ctrls.wrQLenPdf::17 0
system.mem_ctrls.wrQLenPdf::18 0
system.mem_ctrls.wrQLenPdf::19 0
system.mem_ctrls.wrQLenPdf::20 0
system.mem_ctrls.wrQLenPdf::21 0
system.mem_ctrls.wrQLenPdf::22 0
system.mem_ctrls.wrQLenPdf::23 0
system.mem_ctrls.wrQLenPdf::24 0
system.mem_ctrls.wrQLenPdf::25 0
system.mem_ctrls.wrQLenPdf::26 0
system.mem_ctrls.wrQLenPdf::27 0
system.mem_ctrls.wrQLenPdf::28 0
system.mem_ctrls.wrQLenPdf::29 0
system.mem_ctrls.wrQLenPdf::30 0
system.mem_ctrls.wrQLenPdf::31 0
system.mem_ctrls.wrQLenPdf::32 0
system.mem_ctrls.wrQLenPdf::33 0
system.mem_ctrls.wrQLenPdf::34 0
system.mem_ctrls.wrQLenPdf::35 0
system.mem_ctrls.wrQLenPdf::36 0
system.mem_ctrls.wrQLenPdf::37 0
system.mem_ctrls.wrQLenPdf::38 0
system.mem_ctrls.wrQLenPdf::39 0
system.mem_ctrls.wrQLenPdf::40 0
system.mem_ctrls.wrQLenPdf::41 0
system.mem_ctrls.wrQLenPdf::42 0
system.mem_ctrls.wrQLenPdf::43 0
system.mem_ctrls.wrQLenPdf::44 0
system.mem_ctrls.wrQLenPdf::45 0
system.mem_ctrls.wrQLenPdf::46 0
system.mem_ctrls.wrQLenPdf::47 0
system.mem_ctrls.wrQLenPdf::48 0
system.mem_ctrls.wrQLenPdf::49 0
system.mem_ctrls.wrQLenPdf::50 0
system.mem_ctrls.wrQLenPdf::51 0
system.mem_ctrls.wrQLenPdf::52 1
system.mem_ctrls.wrQLenPdf::53 1
system.mem_ctrls.wrQLenPdf::54 1
system.mem_ctrls.wrQLenPdf::55 1
system.mem_ctrls.wrQLenPdf::56 1
system.mem_ctrls.wrQLenPdf::57 1
system.mem_ctrls.wrQLenPdf::58 1
system.mem_ctrls.wrQLenPdf::59 1
system.mem_ctrls.wrQLenPdf::60 1
system.mem_ctrls.wrQLenPdf::61 1
system.mem_ctrls.wrQLenPdf::62 0
system.mem_ctrls.wrQLenPdf::63 0
system.mem_ctrls.wrQLenPdf::64 0
system.mem_ctrls.wrQLenPdf::65 0
system.mem_ctrls.wrQLenPdf::66 0
system.mem_ctrls.wrQLenPdf::67 0
system.mem_ctrls.wrQLenPdf::68 0
system.mem_ctrls.wrQLenPdf::69 0
system.mem_ctrls.wrQLenPdf::70 0
system.mem_ctrls.wrQLenPdf::71 0
system.mem_ctrls.wrQLenPdf::72 0
system.mem_ctrls.wrQLenPdf::73 0
system.mem_ctrls.wrQLenPdf::74 0
system.mem_ctrls.wrQLenPdf::75 0
system.mem_ctrls.wrQLenPdf::76 0
system.mem_ctrls.wrQLenPdf::77 0
system.mem_ctrls.wrQLenPdf::78 0
system.mem_ctrls.wrQLenPdf::79 0
system.mem_ctrls.wrQLenPdf::80 0
system.mem_ctrls.wrQLenPdf::81 0
system.mem_ctrls.wrQLenPdf::82 0
system.mem_ctrls.wrQLenPdf::83 0
system.mem_ctrls.wrQLenPdf::84 0
system.mem_ctrls.wrQLenPdf::85 0
system.mem_ctrls.wrQLenPdf::86 0
system.mem_ctrls.wrQLenPdf::87 0
system.mem_ctrls.wrQLenPdf::88 0
system.mem_ctrls.wrQLenPdf::89 0
system.mem_ctrls.wrQLenPdf::90 0
system.mem_ctrls.wrQLenPdf::91 0
system.mem_ctrls.wrQLenPdf::92 0
system.mem_ctrls.wrQLenPdf::93 0
system.mem_ctrls.wrQLenPdf::94 0
system.mem_ctrls.wrQLenPdf::95 0
system.mem_ctrls.wrQLenPdf::96 0
system.mem_ctrls.wrQLenPdf::97 0
system.mem_ctrls.wrQLenPdf::98 0
system.mem_ctrls.wrQLenPdf::99 0
system.mem_ctrls.wrQLenPdf::100 0
system.mem_ctrls.wrQLenPdf::101 0
system.mem_ctrls.wrQLenPdf::102 0
system.mem_ctrls.wrQLenPdf::103 0
system.mem_ctrls.wrQLenPdf::104 0
system.mem_ctrls.wrQLenPdf::105 0
system.mem_ctrls.wrQLenPdf::106 0
system.mem_ctrls.wrQLenPdf::107 0
system.mem_ctrls.wrQLenPdf::108 0
system.mem_ctrls.wrQLenPdf::109 0
system.mem_ctrls.wrQLenPdf::110 0
system.mem_ctrls.wrQLenPdf::111 0
system.mem_ctrls.wrQLenPdf::112 0
system.mem_ctrls.wrQLenPdf::113 0
system.mem_ctrls.wrQLenPdf::114 0
system.mem_ctrls.wrQLenPdf::115 0
system.mem_ctrls.wrQLenPdf::116 0
system.mem_ctrls.wrQLenPdf::117 0
system.mem_ctrls.wrQLenPdf::118 0
system.mem_ctrls.wrQLenPdf::119 0
system.mem_ctrls.wrQLenPdf::120 0
system.mem_ctrls.wrQLenPdf::121 0
system.mem_ctrls.wrQLenPdf::122 0
system.mem_ctrls.wrQLenPdf::123 0
system.mem_ctrls.wrQLenPdf::124 0
system.mem_ctrls.wrQLenPdf::125 0
system.mem_ctrls.wrQLenPdf::126 0
system.mem_ctrls.wrQLenPdf::127 0
system.mem_ctrls.bytesReadWrQ 0
system.mem_ctrls.bytesReadSys 62016
system.mem_ctrls.bytesWrittenSys 640
system.mem_ctrls.avgRdBWSys 2248169.28884228
system.mem_ctrls.avgWrBWSys 23200.92145348
system.mem_ctrls.totGap 27506354112
system.mem_ctrls.avgGap 28096378.05
system.mem_ctrls.requestorReadBytes::cpu_cluster.cpus0.inst 56576
system.mem_ctrls.requestorReadBytes::cpu_cluster.cpus0.data 4160
system.mem_ctrls.requestorReadBytes::cpu_cluster.cpus1.inst 640
system.mem_ctrls.requestorReadBytes::cpu_cluster.cpus1.data 640
system.mem_ctrls.requestorReadRate::cpu_cluster.cpus0.inst 2050961.456487691496
system.mem_ctrls.requestorReadRate::cpu_cluster.cpus0.data 150805.989447624364
system.mem_ctrls.requestorReadRate::cpu_cluster.cpus1.inst 23200.921453480674
system.mem_ctrls.requestorReadRate::cpu_cluster.cpus1.data 23200.921453480674
system.mem_ctrls.requestorReadAccesses::cpu_cluster.cpus0.inst 884
system.mem_ctrls.requestorReadAccesses::cpu_cluster.cpus0.data 65
system.mem_ctrls.requestorReadAccesses::cpu_cluster.cpus1.inst 10
system.mem_ctrls.requestorReadAccesses::cpu_cluster.cpus1.data 10
system.mem_ctrls.requestorWriteAccesses::writebacks 10
system.mem_ctrls.requestorReadTotalLat::cpu_cluster.cpus0.inst 26303514
system.mem_ctrls.requestorReadTotalLat::cpu_cluster.cpus0.data 2379414
system.mem_ctrls.requestorReadTotalLat::cpu_cluster.cpus1.inst 278708
system.mem_ctrls.requestorReadTotalLat::cpu_cluster.cpus1.data 373160
system.mem_ctrls.requestorReadAvgLat::cpu_cluster.cpus0.inst 29755.11
system.mem_ctrls.requestorReadAvgLat::cpu_cluster.cpus0.data 36606.37
system.mem_ctrls.requestorReadAvgLat::cpu_cluster.cpus1.inst 27870.80
system.mem_ctrls.requestorReadAvgLat::cpu_cluster.cpus1.data 37316.00
system.mem_ctrls.requestorWriteAvgLat::writebacks 0.00
system.mem_ctrls.dram.bytesRead::cpu_cluster.cpus0.inst 56576
system.mem_ctrls.dram.bytesRead::cpu_cluster.cpus0.data 4160
system.mem_ctrls.dram.bytesRead::cpu_cluster.cpus1.inst 640
system.mem_ctrls.dram.bytesRead::cpu_cluster.cpus1.data 640
system.mem_ctrls.dram.bytesRead::total 62016
system.mem_ctrls.dram.bytesInstRead::cpu_cluster.cpus0.inst 56576
system.mem_ctrls.dram.bytesInstRead::cpu_cluster.cpus1.inst 640
system.mem_ctrls.dram.bytesInstRead::total 57216
system.mem_ctrls.dram.bytesWritten::writebacks 640
system.mem_ctrls.dram.bytesWritten::total 640
system.mem_ctrls.dram.numReads::cpu_cluster.cpus0.inst 884
system.mem_ctrls.dram.numReads::cpu_cluster.cpus0.data 65
system.mem_ctrls.dram.numReads::cpu_cluster.cpus1.inst 10
system.mem_ctrls.dram.numReads::cpu_cluster.cpus1.data 10
system.mem_ctrls.dram.numReads::total 969
system.mem_ctrls.dram.numWrites::writebacks 10
system.mem_ctrls.dram.numWrites::total 10
system.mem_ctrls.dram.bwRead::cpu_cluster.cpus0.inst 2050961
system.mem_ctrls.dram.bwRead::cpu_cluster.cpus0.data 150806
system.mem_ctrls.dram.bwRead::cpu_cluster.cpus1.inst 23201
system.mem_ctrls.dram.bwRead::cpu_cluster.cpus1.data 23201
system.mem_ctrls.dram.bwRead::total 2248169
system.mem_ctrls.dram.bwInstRead::cpu_cluster.cpus0.inst 2050961
system.mem_ctrls.dram.bwInstRead::cpu_cluster.cpus1.inst 23201
system.mem_ctrls.dram.bwInstRead::total 2074162
system.mem_ctrls.dram.bwWrite::writebacks 23201
system.mem_ctrls.dram.bwWrite::total 23201
system.mem_ctrls.dram.bwTotal::writebacks 23201
system.mem_ctrls.dram.bwTotal::cpu_cluster.cpus0.inst 2050961
system.mem_ctrls.dram.bwTotal::cpu_cluster.cpus0.data 150806
system.mem_ctrls.dram.bwTotal::cpu_cluster.cpus1.inst 23201
system.mem_ctrls.dram.bwTotal::cpu_cluster.cpus1.data 23201
system.mem_ctrls.dram.bwTotal::total 2271370
system.mem_ctrls.dram.readBursts 969
system.mem_ctrls.dram.writeBursts 0
system.mem_ctrls.dram.perBankRdBursts::0 57
system.mem_ctrls.dram.perBankRdBursts::1 19
system.mem_ctrls.dram.perBankRdBursts::2 0
system.mem_ctrls.dram.perBankRdBursts::3 1
system.mem_ctrls.dram.perBankRdBursts::4 9
system.mem_ctrls.dram.perBankRdBursts::5 3
system.mem_ctrls.dram.perBankRdBursts::6 16
system.mem_ctrls.dram.perBankRdBursts::7 0
system.mem_ctrls.dram.perBankRdBursts::8 31
system.mem_ctrls.dram.perBankRdBursts::9 10
system.mem_ctrls.dram.perBankRdBursts::10 17
system.mem_ctrls.dram.perBankRdBursts::11 33
system.mem_ctrls.dram.perBankRdBursts::12 26
system.mem_ctrls.dram.perBankRdBursts::13 32
system.mem_ctrls.dram.perBankRdBursts::14 8
system.mem_ctrls.dram.perBankRdBursts::15 38
system.mem_ctrls.dram.perBankRdBursts::16 44
system.mem_ctrls.dram.perBankRdBursts::17 101
system.mem_ctrls.dram.perBankRdBursts::18 42
system.mem_ctrls.dram.perBankRdBursts::19 26
system.mem_ctrls.dram.perBankRdBursts::20 2
system.mem_ctrls.dram.perBankRdBursts::21 43
system.mem_ctrls.dram.perBankRdBursts::22 19
system.mem_ctrls.dram.perBankRdBursts::23 91
system.mem_ctrls.dram.perBankRdBursts::24 58
system.mem_ctrls.dram.perBankRdBursts::25 118
system.mem_ctrls.dram.perBankRdBursts::26 24
system.mem_ctrls.dram.perBankRdBursts::27 0
system.mem_ctrls.dram.perBankRdBursts::28 7
system.mem_ctrls.dram.perBankRdBursts::29 19
system.mem_ctrls.dram.perBankRdBursts::30 6
system.mem_ctrls.dram.perBankRdBursts::31 69
system.mem_ctrls.dram.perBankWrBursts::0 0
system.mem_ctrls.dram.perBankWrBursts::1 0
system.mem_ctrls.dram.perBankWrBursts::2 0
system.mem_ctrls.dram.perBankWrBursts::3 0
system.mem_ctrls.dram.perBankWrBursts::4 0
system.mem_ctrls.dram.perBankWrBursts::5 0
system.mem_ctrls.dram.perBankWrBursts::6 0
system.mem_ctrls.dram.perBankWrBursts::7 0
system.mem_ctrls.dram.perBankWrBursts::8 0
system.mem_ctrls.dram.perBankWrBursts::9 0
system.mem_ctrls.dram.perBankWrBursts::10 0
system.mem_ctrls.dram.perBankWrBursts::11 0
system.mem_ctrls.dram.perBankWrBursts::12 0
system.mem_ctrls.dram.perBankWrBursts::13 0
system.mem_ctrls.dram.perBankWrBursts::14 0
system.mem_ctrls.dram.perBankWrBursts::15 0
system.mem_ctrls.dram.perBankWrBursts::16 0
system.mem_ctrls.dram.perBankWrBursts::17 0
system.mem_ctrls.dram.perBankWrBursts::18 0
system.mem_ctrls.dram.perBankWrBursts::19 0
system.mem_ctrls.dram.perBankWrBursts::20 0
system.mem_ctrls.dram.perBankWrBursts::21 0
system.mem_ctrls.dram.perBankWrBursts::22 0
system.mem_ctrls.dram.perBankWrBursts::23 0
system.mem_ctrls.dram.perBankWrBursts::24 0
system.mem_ctrls.dram.perBankWrBursts::25 0
system.mem_ctrls.dram.perBankWrBursts::26 0
system.mem_ctrls.dram.perBankWrBursts::27 0
system.mem_ctrls.dram.perBankWrBursts::28 0
system.mem_ctrls.dram.perBankWrBursts::29 0
system.mem_ctrls.dram.perBankWrBursts::30 0
system.mem_ctrls.dram.perBankWrBursts::31 0
system.mem_ctrls.dram.totQLat 12385048
system.mem_ctrls.dram.totBusLat 3228708
system.mem_ctrls.dram.totMemAccLat 29334796
system.mem_ctrls.dram.avgQLat 12781.27
system.mem_ctrls.dram.avgBusLat 3332.00
system.mem_ctrls.dram.avgMemAccLat 30273.27
system.mem_ctrls.dram.readRowHits 583
system.mem_ctrls.dram.writeRowHits 0
system.mem_ctrls.dram.readRowHitRate 60.17
system.mem_ctrls.dram.writeRowHitRate nan
system.mem_ctrls.dram.bytesPerActivate::samples 391
system.mem_ctrls.dram.bytesPerActivate::mean 159.754476
system.mem_ctrls.dram.bytesPerActivate::gmean 119.126248
system.mem_ctrls.dram.bytesPerActivate::stdev 158.822142
system.mem_ctrls.dram.bytesPerActivate::0-127 181 46.29% 46.29%
system.mem_ctrls.dram.bytesPerActivate::128-255 139 35.55% 81.84%
system.mem_ctrls.dram.bytesPerActivate::256-383 39 9.97% 91.82%
system.mem_ctrls.dram.bytesPerActivate::384-511 14 3.58% 95.40%
system.mem_ctrls.dram.bytesPerActivate::512-639 5 1.28% 96.68%
system.mem_ctrls.dram.bytesPerActivate::640-767 6 1.53% 98.21%
system.mem_ctrls.dram.bytesPerActivate::768-895 2 0.51% 98.72%
system.mem_ctrls.dram.bytesPerActivate::896-1023 2 0.51% 99.23%
system.mem_ctrls.dram.bytesPerActivate::1024-1151 3 0.77% 100.00%
system.mem_ctrls.dram.bytesPerActivate::total 391
system.mem_ctrls.dram.bytesRead 62016
system.mem_ctrls.dram.bytesWritten 0
system.mem_ctrls.dram.avgRdBW 2.248169
system.mem_ctrls.dram.avgWrBW 0
system.mem_ctrls.dram.peakBW 19207.00
system.mem_ctrls.dram.busUtil 0.01
system.mem_ctrls.dram.busUtilRead 0.01
system.mem_ctrls.dram.busUtilWrite 0.00
system.mem_ctrls.dram.pageHitRate 60.17
system.mem_ctrls.dram.power_state.pwrStateResidencyTicks::UNDEFINED 27605012022
system.mem_ctrls.dram.rank0.actEnergy 202718.880000
system.mem_ctrls.dram.rank0.preEnergy 357876.792000
system.mem_ctrls.dram.rank0.readEnergy 822870.720000
system.mem_ctrls.dram.rank0.writeEnergy 0
system.mem_ctrls.dram.rank0.refreshEnergy 2394556212.232672
system.mem_ctrls.dram.rank0.actBackEnergy 623700246.069558
system.mem_ctrls.dram.rank0.preBackEnergy 8573205345.600351
system.mem_ctrls.dram.rank0.actPowerDownEnergy 0
system.mem_ctrls.dram.rank0.prePowerDownEnergy 0
system.mem_ctrls.dram.rank0.selfRefreshEnergy 0
system.mem_ctrls.dram.rank0.totalEnergy 11592845270.294603
system.mem_ctrls.dram.rank0.averagePower 420.257332
system.mem_ctrls.dram.rank0.totalIdleTime 0
system.mem_ctrls.dram.rank0.pwrStateTime::IDLE 26222588144
system.mem_ctrls.dram.rank0.pwrStateTime::REF 1240050000
system.mem_ctrls.dram.rank0.pwrStateTime::SREF 0
system.mem_ctrls.dram.rank0.pwrStateTime::PRE_PDN 0
system.mem_ctrls.dram.rank0.pwrStateTime::ACT 127155156
system.mem_ctrls.dram.rank0.pwrStateTime::ACT_PDN 0
system.mem_ctrls.dram.rank1.actEnergy 406997.136000
system.mem_ctrls.dram.rank1.preEnergy 718506.482400
system.mem_ctrls.dram.rank1.readEnergy 1854202.022400
system.mem_ctrls.dram.rank1.writeEnergy 0
system.mem_ctrls.dram.rank1.refreshEnergy 2394556212.232672
system.mem_ctrls.dram.rank1.actBackEnergy 630911106.571158
system.mem_ctrls.dram.rank1.preBackEnergy 8569755590.054751
system.mem_ctrls.dram.rank1.actPowerDownEnergy 0
system.mem_ctrls.dram.rank1.prePowerDownEnergy 0
system.mem_ctrls.dram.rank1.selfRefreshEnergy 0
system.mem_ctrls.dram.rank1.totalEnergy 11598202614.499403
system.mem_ctrls.dram.rank1.averagePower 420.451544
system.mem_ctrls.dram.rank1.totalIdleTime 0
system.mem_ctrls.dram.rank1.pwrStateTime::IDLE 26207337750
system.mem_ctrls.dram.rank1.pwrStateTime::REF 1240050000
system.mem_ctrls.dram.rank1.pwrStateTime::SREF 0
system.mem_ctrls.dram.rank1.pwrStateTime::PRE_PDN 0
system.mem_ctrls.dram.rank1.pwrStateTime::ACT 142405550
system.mem_ctrls.dram.rank1.pwrStateTime::ACT_PDN 0
system.mem_ctrls.power_state.pwrStateResidencyTicks::UNDEFINED 27605012022
system.membus.transDist::ReadResp 968
system.membus.transDist::WritebackDirty 10
system.membus.transDist::CleanEvict 11
system.membus.transDist::UpgradeReq 41
system.membus.transDist::ReadExReq 1
system.membus.transDist::ReadExResp 1
system.membus.transDist::ReadCleanReq 968
system.membus.pktCount_system.cpu_cluster.l2.mem_side_port::system.mem_ctrls.port 2000
system.membus.pktCount_system.cpu_cluster.l2.mem_side_port::total 2000
system.membus.pktCount::total 2000
system.membus.pktSize_system.cpu_cluster.l2.mem_side_port::system.mem_ctrls.port 62656
system.membus.pktSize_system.cpu_cluster.l2.mem_side_port::total 62656
system.membus.pktSize::total 62656
system.membus.snoops 8
system.membus.snoopTraffic 0
system.membus.snoopFanout::samples 1010
system.membus.snoopFanout::mean 0
system.membus.snoopFanout::stdev 0
system.membus.snoopFanout::underflows 0 0.00% 0.00%
system.membus.snoopFanout::0 1010 100.00% 100.00%
system.membus.snoopFanout::1 0 0.00% 100.00%
system.membus.snoopFanout::2 0 0.00% 100.00%
system.membus.snoopFanout::overflows 0 0.00% 100.00%
system.membus.snoopFanout::min_value 0
system.membus.snoopFanout::max_value 0
system.membus.snoopFanout::total 1010
system.membus.badaddr_responder.power_state.pwrStateResidencyTicks::UNDEFINED 27605012022
system.membus.power_state.pwrStateResidencyTicks::UNDEFINED 27605012022
system.membus.reqLayer0.occupancy 707958
system.membus.reqLayer0.utilization 0.0
system.membus.respLayer3.occupancy 3588802
system.membus.respLayer3.utilization 0.0
system.membus.snoop_filter.totRequests 1031
system.membus.snoop_filter.hitSingleRequests 1010
system.membus.snoop_filter.hitMultiRequests 0
system.membus.snoop_filter.totSnoops 0
system.membus.snoop_filter.hitSingleSnoops 0
system.membus.snoop_filter.hitMultiSnoops 0
system.pci_devices.power_state.pwrStateResidencyTicks::UNDEFINED 27605012022
system.realview.bootmem.power_state.pwrStateResidencyTicks::UNDEFINED 27605012022
system.realview.clock24MHz.clock 41666
system.realview.clock32KHz.clock 31250000
system.realview.dcc.osc_cpu.clock 16666
system.realview.dcc.osc_ddr.clock 25000
system.realview.dcc.osc_hsbm.clock 25000
system.realview.dcc.osc_pxl.clock 42105
system.realview.dcc.osc_smb.clock 20000
system.realview.dcc.osc_sys.clock 16666
system.realview.el2_watchdog.power_state.pwrStateResidencyTicks::UNDEFINED 27605012022
system.realview.energy_ctrl.power_state.pwrStateResidencyTicks::UNDEFINED 27605012022
system.realview.flash0.power_state.pwrStateResidencyTicks::UNDEFINED 27605012022
system.realview.flash1.power_state.pwrStateResidencyTicks::UNDEFINED 27605012022
system.realview.generic_timer_mem.frames0.power_state.pwrStateResidencyTicks::UNDEFINED 27605012022
system.realview.generic_timer_mem.frames1.power_state.pwrStateResidencyTicks::UNDEFINED 27605012022
system.realview.generic_timer_mem.power_state.pwrStateResidencyTicks::UNDEFINED 27605012022
system.realview.gic.its.power_state.pwrStateResidencyTicks::UNDEFINED 27605012022
system.realview.gic.power_state.pwrStateResidencyTicks::UNDEFINED 27605012022
system.realview.io_voltage.voltage 3.300000
system.realview.kmi0.power_state.pwrStateResidencyTicks::UNDEFINED 27605012022
system.realview.kmi1.power_state.pwrStateResidencyTicks::UNDEFINED 27605012022
system.realview.mcc.osc_clcd.clock 42105
system.realview.mcc.osc_mcc.clock 20000
system.realview.mcc.osc_peripheral.clock 41666
system.realview.mcc.osc_system_bus.clock 41666
system.realview.non_trusted_sram.power_state.pwrStateResidencyTicks::UNDEFINED 27605012022
system.realview.pci_host.power_state.pwrStateResidencyTicks::UNDEFINED 27605012022
system.realview.pwr_ctrl.power_state.pwrStateResidencyTicks::UNDEFINED 27605012022
system.realview.realview_io.power_state.pwrStateResidencyTicks::UNDEFINED 27605012022
system.realview.rtc.power_state.pwrStateResidencyTicks::UNDEFINED 27605012022
system.realview.system_watchdog.power_state.pwrStateResidencyTicks::UNDEFINED 27605012022
system.realview.trusted_dram.power_state.pwrStateResidencyTicks::UNDEFINED 27605012022
system.realview.trusted_sram.power_state.pwrStateResidencyTicks::UNDEFINED 27605012022
system.realview.trusted_watchdog.power_state.pwrStateResidencyTicks::UNDEFINED 27605012022
system.realview.uart0.power_state.pwrStateResidencyTicks::UNDEFINED 27605012022
system.realview.uart1.power_state.pwrStateResidencyTicks::UNDEFINED 27605012022
system.realview.uart2.power_state.pwrStateResidencyTicks::UNDEFINED 27605012022
system.realview.uart3.power_state.pwrStateResidencyTicks::UNDEFINED 27605012022
system.realview.vio0.power_state.pwrStateResidencyTicks::UNDEFINED 27605012022
system.realview.vio1.power_state.pwrStateResidencyTicks::UNDEFINED 27605012022
system.realview.vram.power_state.pwrStateResidencyTicks::UNDEFINED 27605012022
system.realview.watchdog.power_state.pwrStateResidencyTicks::UNDEFINED 27605012022
system.voltage_domain.voltage 0.868800
system.workload.inst.arm 0
system.workload.inst.quiesce 1017

---------- End Simulation Statistics   ----------
