
---------- Begin Simulation Statistics ----------
simSeconds                                  20.805141                       # Number of seconds simulated (Second)
simTicks                                 20805141497532                       # Number of ticks simulated (Tick)
finalTick                                20805141497532                       # Number of ticks from beginning of simulation (restored from checkpoints and never reset) (Tick)
simFreq                                  1000000000000                       # The number of ticks per simulated second ((Tick/Second))
hostSeconds                                    677.60                       # Real time elapsed on the host (Second)
hostTickRate                              30704037128                       # The number of ticks simulated per host second (ticks/s) ((Tick/Second))
hostMemory                                    1822968                       # Number of bytes of host memory used (Byte)
simInsts                                    576835220                       # Number of instructions simulated (Count)
simOps                                      712368891                       # Number of ops (including micro ops) simulated (Count)
hostInstRate                                   851288                       # Simulator instruction rate (inst/s) ((Count/Second))
hostOpRate                                    1051307                       # Simulator op (including micro ops) rate (op/s) ((Count/Second))
system.bridge.power_state.pwrStateResidencyTicks::UNDEFINED 20805141497532                       # Cumulative time (in ticks) in various power states (Tick)
system.clk_domain.clock                           714                       # Clock period in ticks (Tick)
system.cpu0.numCycles                     29138988362                       # Number of cpu cycles simulated (Cycle)
system.cpu0.cpi                            148.837447                       # CPI: cycles per instruction (core level) ((Cycle/Count))
system.cpu0.ipc                              0.006719                       # IPC: instructions per cycle (core level) ((Count/Cycle))
system.cpu0.numWorkItemsStarted                     0                       # Number of work items this cpu started (Count)
system.cpu0.numWorkItemsCompleted                   0                       # Number of work items this cpu completed (Count)
system.cpu0.commitStats0.numInsts           195777265                       # Number of instructions committed (thread level) (Count)
system.cpu0.commitStats0.numOps             237438763                       # Number of ops (including micro ops) committed (thread level) (Count)
system.cpu0.commitStats0.numInstsNotNOP             0                       # Number of instructions committed excluding NOPs or prefetches (Count)
system.cpu0.commitStats0.numOpsNotNOP               0                       # Number of Ops (including micro ops) Simulated (Count)
system.cpu0.commitStats0.cpi               148.837447                       # CPI: cycles per instruction (thread level) ((Cycle/Count))
system.cpu0.commitStats0.ipc                 0.006719                       # IPC: instructions per cycle (thread level) ((Count/Cycle))
system.cpu0.commitStats0.numMemRefs                 0                       # Number of memory references committed (Count)
system.cpu0.commitStats0.numFpInsts                 0                       # Number of float instructions (Count)
system.cpu0.commitStats0.numIntInsts        224432720                       # Number of integer instructions (Count)
system.cpu0.commitStats0.numLoadInsts        40792852                       # Number of load instructions (Count)
system.cpu0.commitStats0.numStoreInsts       34496176                       # Number of store instructions (Count)
system.cpu0.commitStats0.numVecInsts           573853                       # Number of vector instructions (Count)
system.cpu0.commitStats0.committedInstType::No_OpClass        41866      0.02%      0.02% # Class of committed instruction. (Count)
system.cpu0.commitStats0.committedInstType::IntAlu    161247211     67.91%     67.93% # Class of committed instruction. (Count)
system.cpu0.commitStats0.committedInstType::IntMult       403373      0.17%     68.10% # Class of committed instruction. (Count)
system.cpu0.commitStats0.committedInstType::IntDiv        26921      0.01%     68.11% # Class of committed instruction. (Count)
system.cpu0.commitStats0.committedInstType::FloatAdd           18      0.00%     68.11% # Class of committed instruction. (Count)
system.cpu0.commitStats0.committedInstType::FloatCmp          491      0.00%     68.11% # Class of committed instruction. (Count)
system.cpu0.commitStats0.committedInstType::FloatCvt          598      0.00%     68.11% # Class of committed instruction. (Count)
system.cpu0.commitStats0.committedInstType::FloatMult          126      0.00%     68.11% # Class of committed instruction. (Count)
system.cpu0.commitStats0.committedInstType::FloatMultAcc            0      0.00%     68.11% # Class of committed instruction. (Count)
system.cpu0.commitStats0.committedInstType::FloatDiv           56      0.00%     68.11% # Class of committed instruction. (Count)
system.cpu0.commitStats0.committedInstType::FloatMisc          833      0.00%     68.11% # Class of committed instruction. (Count)
system.cpu0.commitStats0.committedInstType::FloatSqrt            0      0.00%     68.11% # Class of committed instruction. (Count)
system.cpu0.commitStats0.committedInstType::SimdAdd        78986      0.03%     68.14% # Class of committed instruction. (Count)
system.cpu0.commitStats0.committedInstType::SimdAddAcc            0      0.00%     68.14% # Class of committed instruction. (Count)
system.cpu0.commitStats0.committedInstType::SimdAlu       163595      0.07%     68.21% # Class of committed instruction. (Count)
system.cpu0.commitStats0.committedInstType::SimdCmp       108008      0.05%     68.26% # Class of committed instruction. (Count)
system.cpu0.commitStats0.committedInstType::SimdCvt            0      0.00%     68.26% # Class of committed instruction. (Count)
system.cpu0.commitStats0.committedInstType::SimdMisc        77653      0.03%     68.29% # Class of committed instruction. (Count)
system.cpu0.commitStats0.committedInstType::SimdMult            0      0.00%     68.29% # Class of committed instruction. (Count)
system.cpu0.commitStats0.committedInstType::SimdMultAcc            0      0.00%     68.29% # Class of committed instruction. (Count)
system.cpu0.commitStats0.committedInstType::SimdMatMultAcc            0      0.00%     68.29% # Class of committed instruction. (Count)
system.cpu0.commitStats0.committedInstType::SimdShift            0      0.00%     68.29% # Class of committed instruction. (Count)
system.cpu0.commitStats0.committedInstType::SimdShiftAcc            0      0.00%     68.29% # Class of committed instruction. (Count)
system.cpu0.commitStats0.committedInstType::SimdDiv            0      0.00%     68.29% # Class of committed instruction. (Count)
system.cpu0.commitStats0.committedInstType::SimdSqrt            0      0.00%     68.29% # Class of committed instruction. (Count)
system.cpu0.commitStats0.committedInstType::SimdFloatAdd            0      0.00%     68.29% # Class of committed instruction. (Count)
system.cpu0.commitStats0.committedInstType::SimdFloatAlu            0      0.00%     68.29% # Class of committed instruction. (Count)
system.cpu0.commitStats0.committedInstType::SimdFloatCmp            0      0.00%     68.29% # Class of committed instruction. (Count)
system.cpu0.commitStats0.committedInstType::SimdFloatCvt            0      0.00%     68.29% # Class of committed instruction. (Count)
system.cpu0.commitStats0.committedInstType::SimdFloatDiv            0      0.00%     68.29% # Class of committed instruction. (Count)
system.cpu0.commitStats0.committedInstType::SimdFloatMisc            0      0.00%     68.29% # Class of committed instruction. (Count)
system.cpu0.commitStats0.committedInstType::SimdFloatMult            0      0.00%     68.29% # Class of committed instruction. (Count)
system.cpu0.commitStats0.committedInstType::SimdFloatMultAcc            0      0.00%     68.29% # Class of committed instruction. (Count)
system.cpu0.commitStats0.committedInstType::SimdFloatMatMultAcc            0      0.00%     68.29% # Class of committed instruction. (Count)
system.cpu0.commitStats0.committedInstType::SimdFloatSqrt            0      0.00%     68.29% # Class of committed instruction. (Count)
system.cpu0.commitStats0.committedInstType::SimdReduceAdd            0      0.00%     68.29% # Class of committed instruction. (Count)
system.cpu0.commitStats0.committedInstType::SimdReduceAlu            0      0.00%     68.29% # Class of committed instruction. (Count)
system.cpu0.commitStats0.committedInstType::SimdReduceCmp            0      0.00%     68.29% # Class of committed instruction. (Count)
system.cpu0.commitStats0.committedInstType::SimdFloatReduceAdd            0      0.00%     68.29% # Class of committed instruction. (Count)
system.cpu0.commitStats0.committedInstType::SimdFloatReduceCmp            0      0.00%     68.29% # Class of committed instruction. (Count)
system.cpu0.commitStats0.committedInstType::SimdAes            0      0.00%     68.29% # Class of committed instruction. (Count)
system.cpu0.commitStats0.committedInstType::SimdAesMix            0      0.00%     68.29% # Class of committed instruction. (Count)
system.cpu0.commitStats0.committedInstType::SimdSha1Hash            0      0.00%     68.29% # Class of committed instruction. (Count)
system.cpu0.commitStats0.committedInstType::SimdSha1Hash2            0      0.00%     68.29% # Class of committed instruction. (Count)
system.cpu0.commitStats0.committedInstType::SimdSha256Hash            0      0.00%     68.29% # Class of committed instruction. (Count)
system.cpu0.commitStats0.committedInstType::SimdSha256Hash2            0      0.00%     68.29% # Class of committed instruction. (Count)
system.cpu0.commitStats0.committedInstType::SimdShaSigma2            0      0.00%     68.29% # Class of committed instruction. (Count)
system.cpu0.commitStats0.committedInstType::SimdShaSigma3            0      0.00%     68.29% # Class of committed instruction. (Count)
system.cpu0.commitStats0.committedInstType::SimdPredAlu            0      0.00%     68.29% # Class of committed instruction. (Count)
system.cpu0.commitStats0.committedInstType::Matrix            0      0.00%     68.29% # Class of committed instruction. (Count)
system.cpu0.commitStats0.committedInstType::MatrixMov            0      0.00%     68.29% # Class of committed instruction. (Count)
system.cpu0.commitStats0.committedInstType::MatrixOP            0      0.00%     68.29% # Class of committed instruction. (Count)
system.cpu0.commitStats0.committedInstType::MemRead     40792852     17.18%     85.47% # Class of committed instruction. (Count)
system.cpu0.commitStats0.committedInstType::MemWrite     34496176     14.53%    100.00% # Class of committed instruction. (Count)
system.cpu0.commitStats0.committedInstType::FloatMemRead            0      0.00%    100.00% # Class of committed instruction. (Count)
system.cpu0.commitStats0.committedInstType::FloatMemWrite            0      0.00%    100.00% # Class of committed instruction. (Count)
system.cpu0.commitStats0.committedInstType::IprAccess            0      0.00%    100.00% # Class of committed instruction. (Count)
system.cpu0.commitStats0.committedInstType::InstPrefetch            0      0.00%    100.00% # Class of committed instruction. (Count)
system.cpu0.commitStats0.committedInstType::VectorUnitStrideLoad            0      0.00%    100.00% # Class of committed instruction. (Count)
system.cpu0.commitStats0.committedInstType::VectorUnitStrideStore            0      0.00%    100.00% # Class of committed instruction. (Count)
system.cpu0.commitStats0.committedInstType::VectorUnitStrideMaskLoad            0      0.00%    100.00% # Class of committed instruction. (Count)
system.cpu0.commitStats0.committedInstType::VectorUnitStrideMaskStore            0      0.00%    100.00% # Class of committed instruction. (Count)
system.cpu0.commitStats0.committedInstType::VectorStridedLoad            0      0.00%    100.00% # Class of committed instruction. (Count)
system.cpu0.commitStats0.committedInstType::VectorStridedStore            0      0.00%    100.00% # Class of committed instruction. (Count)
system.cpu0.commitStats0.committedInstType::VectorIndexedLoad            0      0.00%    100.00% # Class of committed instruction. (Count)
system.cpu0.commitStats0.committedInstType::VectorIndexedStore            0      0.00%    100.00% # Class of committed instruction. (Count)
system.cpu0.commitStats0.committedInstType::VectorUnitStrideFaultOnlyFirstLoad            0      0.00%    100.00% # Class of committed instruction. (Count)
system.cpu0.commitStats0.committedInstType::VectorWholeRegisterLoad            0      0.00%    100.00% # Class of committed instruction. (Count)
system.cpu0.commitStats0.committedInstType::VectorWholeRegisterStore            0      0.00%    100.00% # Class of committed instruction. (Count)
system.cpu0.commitStats0.committedInstType::VectorIntegerArith            0      0.00%    100.00% # Class of committed instruction. (Count)
system.cpu0.commitStats0.committedInstType::VectorFloatArith            0      0.00%    100.00% # Class of committed instruction. (Count)
system.cpu0.commitStats0.committedInstType::VectorFloatConvert            0      0.00%    100.00% # Class of committed instruction. (Count)
system.cpu0.commitStats0.committedInstType::VectorIntegerReduce            0      0.00%    100.00% # Class of committed instruction. (Count)
system.cpu0.commitStats0.committedInstType::VectorFloatReduce            0      0.00%    100.00% # Class of committed instruction. (Count)
system.cpu0.commitStats0.committedInstType::VectorMisc            0      0.00%    100.00% # Class of committed instruction. (Count)
system.cpu0.commitStats0.committedInstType::VectorIntegerExtension            0      0.00%    100.00% # Class of committed instruction. (Count)
system.cpu0.commitStats0.committedInstType::VectorConfig            0      0.00%    100.00% # Class of committed instruction. (Count)
system.cpu0.commitStats0.committedInstType::total    237438763                       # Class of committed instruction. (Count)
system.cpu0.commitStats0.committedControl::IsControl     41694799                       # Class of control type instructions committed (Count)
system.cpu0.commitStats0.committedControl::IsDirectControl     31805516                       # Class of control type instructions committed (Count)
system.cpu0.commitStats0.committedControl::IsIndirectControl      9878704                       # Class of control type instructions committed (Count)
system.cpu0.commitStats0.committedControl::IsCondControl     21183307                       # Class of control type instructions committed (Count)
system.cpu0.commitStats0.committedControl::IsUncondControl     20500913                       # Class of control type instructions committed (Count)
system.cpu0.commitStats0.committedControl::IsCall      9468326                       # Class of control type instructions committed (Count)
system.cpu0.commitStats0.committedControl::IsReturn      9466657                       # Class of control type instructions committed (Count)
system.cpu0.dcache.demandHits::cpu0.data     71507136                       # number of demand (read+write) hits (Count)
system.cpu0.dcache.demandHits::total         71507136                       # number of demand (read+write) hits (Count)
system.cpu0.dcache.overallHits::cpu0.data     72099315                       # number of overall hits (Count)
system.cpu0.dcache.overallHits::total        72099315                       # number of overall hits (Count)
system.cpu0.dcache.demandMisses::cpu0.data      1699348                       # number of demand (read+write) misses (Count)
system.cpu0.dcache.demandMisses::total        1699348                       # number of demand (read+write) misses (Count)
system.cpu0.dcache.overallMisses::cpu0.data      1869087                       # number of overall misses (Count)
system.cpu0.dcache.overallMisses::total       1869087                       # number of overall misses (Count)
system.cpu0.dcache.demandAccesses::cpu0.data     73206484                       # number of demand (read+write) accesses (Count)
system.cpu0.dcache.demandAccesses::total     73206484                       # number of demand (read+write) accesses (Count)
system.cpu0.dcache.overallAccesses::cpu0.data     73968402                       # number of overall (read+write) accesses (Count)
system.cpu0.dcache.overallAccesses::total     73968402                       # number of overall (read+write) accesses (Count)
system.cpu0.dcache.demandMissRate::cpu0.data     0.023213                       # miss rate for demand accesses (Ratio)
system.cpu0.dcache.demandMissRate::total     0.023213                       # miss rate for demand accesses (Ratio)
system.cpu0.dcache.overallMissRate::cpu0.data     0.025269                       # miss rate for overall accesses (Ratio)
system.cpu0.dcache.overallMissRate::total     0.025269                       # miss rate for overall accesses (Ratio)
system.cpu0.dcache.blockedCycles::no_mshrs            0                       # number of cycles access was blocked (Cycle)
system.cpu0.dcache.blockedCycles::no_targets            0                       # number of cycles access was blocked (Cycle)
system.cpu0.dcache.blockedCauses::no_mshrs            0                       # number of times access was blocked (Count)
system.cpu0.dcache.blockedCauses::no_targets            0                       # number of times access was blocked (Count)
system.cpu0.dcache.avgBlocked::no_mshrs           nan                       # average number of cycles each access was blocked ((Cycle/Count))
system.cpu0.dcache.avgBlocked::no_targets          nan                       # average number of cycles each access was blocked ((Cycle/Count))
system.cpu0.dcache.writebacks::writebacks      1231366                       # number of writebacks (Count)
system.cpu0.dcache.writebacks::total          1231366                       # number of writebacks (Count)
system.cpu0.dcache.replacements               1787464                       # number of replacements (Count)
system.cpu0.dcache.LoadLockedReq.hits::cpu0.data       630092                       # number of LoadLockedReq hits (Count)
system.cpu0.dcache.LoadLockedReq.hits::total       630092                       # number of LoadLockedReq hits (Count)
system.cpu0.dcache.LoadLockedReq.misses::cpu0.data         3040                       # number of LoadLockedReq misses (Count)
system.cpu0.dcache.LoadLockedReq.misses::total         3040                       # number of LoadLockedReq misses (Count)
system.cpu0.dcache.LoadLockedReq.accesses::cpu0.data       633132                       # number of LoadLockedReq accesses(hits+misses) (Count)
system.cpu0.dcache.LoadLockedReq.accesses::total       633132                       # number of LoadLockedReq accesses(hits+misses) (Count)
system.cpu0.dcache.LoadLockedReq.missRate::cpu0.data     0.004802                       # miss rate for LoadLockedReq accesses (Ratio)
system.cpu0.dcache.LoadLockedReq.missRate::total     0.004802                       # miss rate for LoadLockedReq accesses (Ratio)
system.cpu0.dcache.ReadReq.hits::cpu0.data     38280491                       # number of ReadReq hits (Count)
system.cpu0.dcache.ReadReq.hits::total       38280491                       # number of ReadReq hits (Count)
system.cpu0.dcache.ReadReq.misses::cpu0.data      1134910                       # number of ReadReq misses (Count)
system.cpu0.dcache.ReadReq.misses::total      1134910                       # number of ReadReq misses (Count)
system.cpu0.dcache.ReadReq.accesses::cpu0.data     39415401                       # number of ReadReq accesses(hits+misses) (Count)
system.cpu0.dcache.ReadReq.accesses::total     39415401                       # number of ReadReq accesses(hits+misses) (Count)
system.cpu0.dcache.ReadReq.missRate::cpu0.data     0.028794                       # miss rate for ReadReq accesses (Ratio)
system.cpu0.dcache.ReadReq.missRate::total     0.028794                       # miss rate for ReadReq accesses (Ratio)
system.cpu0.dcache.SoftPFExReq.hits::cpu0.data       577909                       # number of SoftPFExReq hits (Count)
system.cpu0.dcache.SoftPFExReq.hits::total       577909                       # number of SoftPFExReq hits (Count)
system.cpu0.dcache.SoftPFExReq.misses::cpu0.data       157259                       # number of SoftPFExReq misses (Count)
system.cpu0.dcache.SoftPFExReq.misses::total       157259                       # number of SoftPFExReq misses (Count)
system.cpu0.dcache.SoftPFExReq.accesses::cpu0.data       735168                       # number of SoftPFExReq accesses(hits+misses) (Count)
system.cpu0.dcache.SoftPFExReq.accesses::total       735168                       # number of SoftPFExReq accesses(hits+misses) (Count)
system.cpu0.dcache.SoftPFExReq.missRate::cpu0.data     0.213909                       # miss rate for SoftPFExReq accesses (Ratio)
system.cpu0.dcache.SoftPFExReq.missRate::total     0.213909                       # miss rate for SoftPFExReq accesses (Ratio)
system.cpu0.dcache.SoftPFReq.hits::cpu0.data        14270                       # number of SoftPFReq hits (Count)
system.cpu0.dcache.SoftPFReq.hits::total        14270                       # number of SoftPFReq hits (Count)
system.cpu0.dcache.SoftPFReq.misses::cpu0.data        12480                       # number of SoftPFReq misses (Count)
system.cpu0.dcache.SoftPFReq.misses::total        12480                       # number of SoftPFReq misses (Count)
system.cpu0.dcache.SoftPFReq.accesses::cpu0.data        26750                       # number of SoftPFReq accesses(hits+misses) (Count)
system.cpu0.dcache.SoftPFReq.accesses::total        26750                       # number of SoftPFReq accesses(hits+misses) (Count)
system.cpu0.dcache.SoftPFReq.missRate::cpu0.data     0.466542                       # miss rate for SoftPFReq accesses (Ratio)
system.cpu0.dcache.SoftPFReq.missRate::total     0.466542                       # miss rate for SoftPFReq accesses (Ratio)
system.cpu0.dcache.StoreCondReq.hits::cpu0.data       631861                       # number of StoreCondReq hits (Count)
system.cpu0.dcache.StoreCondReq.hits::total       631861                       # number of StoreCondReq hits (Count)
system.cpu0.dcache.StoreCondReq.misses::cpu0.data           38                       # number of StoreCondReq misses (Count)
system.cpu0.dcache.StoreCondReq.misses::total           38                       # number of StoreCondReq misses (Count)
system.cpu0.dcache.StoreCondReq.accesses::cpu0.data       631899                       # number of StoreCondReq accesses(hits+misses) (Count)
system.cpu0.dcache.StoreCondReq.accesses::total       631899                       # number of StoreCondReq accesses(hits+misses) (Count)
system.cpu0.dcache.StoreCondReq.missRate::cpu0.data     0.000060                       # miss rate for StoreCondReq accesses (Ratio)
system.cpu0.dcache.StoreCondReq.missRate::total     0.000060                       # miss rate for StoreCondReq accesses (Ratio)
system.cpu0.dcache.WriteLineReq.hits::cpu0.data        18072                       # number of WriteLineReq hits (Count)
system.cpu0.dcache.WriteLineReq.hits::total        18072                       # number of WriteLineReq hits (Count)
system.cpu0.dcache.WriteLineReq.misses::cpu0.data       165553                       # number of WriteLineReq misses (Count)
system.cpu0.dcache.WriteLineReq.misses::total       165553                       # number of WriteLineReq misses (Count)
system.cpu0.dcache.WriteLineReq.accesses::cpu0.data       183625                       # number of WriteLineReq accesses(hits+misses) (Count)
system.cpu0.dcache.WriteLineReq.accesses::total       183625                       # number of WriteLineReq accesses(hits+misses) (Count)
system.cpu0.dcache.WriteLineReq.missRate::cpu0.data     0.901582                       # miss rate for WriteLineReq accesses (Ratio)
system.cpu0.dcache.WriteLineReq.missRate::total     0.901582                       # miss rate for WriteLineReq accesses (Ratio)
system.cpu0.dcache.WriteReq.hits::cpu0.data     33208573                       # number of WriteReq hits (Count)
system.cpu0.dcache.WriteReq.hits::total      33208573                       # number of WriteReq hits (Count)
system.cpu0.dcache.WriteReq.misses::cpu0.data       398885                       # number of WriteReq misses (Count)
system.cpu0.dcache.WriteReq.misses::total       398885                       # number of WriteReq misses (Count)
system.cpu0.dcache.WriteReq.accesses::cpu0.data     33607458                       # number of WriteReq accesses(hits+misses) (Count)
system.cpu0.dcache.WriteReq.accesses::total     33607458                       # number of WriteReq accesses(hits+misses) (Count)
system.cpu0.dcache.WriteReq.missRate::cpu0.data     0.011869                       # miss rate for WriteReq accesses (Ratio)
system.cpu0.dcache.WriteReq.missRate::total     0.011869                       # miss rate for WriteReq accesses (Ratio)
system.cpu0.dcache.power_state.pwrStateResidencyTicks::UNDEFINED 20805141497532                       # Cumulative time (in ticks) in various power states (Tick)
system.cpu0.dcache.tags.tagsInUse          244.855387                       # Average ticks per tags in use ((Tick/Count))
system.cpu0.dcache.tags.totalRefs            75237734                       # Total number of references to valid blocks. (Count)
system.cpu0.dcache.tags.sampledRefs           1837445                       # Sample count of references to valid blocks. (Count)
system.cpu0.dcache.tags.avgRefs             40.946931                       # Average number of references to valid blocks. ((Count/Count))
system.cpu0.dcache.tags.warmupTick            6331038                       # The tick when the warmup percentage was hit. (Tick)
system.cpu0.dcache.tags.occupancies::cpu0.data   244.855387                       # Average occupied blocks per tick, per requestor ((Count/Tick))
system.cpu0.dcache.tags.avgOccs::cpu0.data     0.956466                       # Average percentage of cache occupancy ((Ratio/Tick))
system.cpu0.dcache.tags.avgOccs::total       0.956466                       # Average percentage of cache occupancy ((Ratio/Tick))
system.cpu0.dcache.tags.occupanciesTaskId::1024          256                       # Occupied blocks per task id (Count)
system.cpu0.dcache.tags.ageTaskId_1024::0          117                       # Occupied blocks per task id, per block age (Count)
system.cpu0.dcache.tags.ageTaskId_1024::1          101                       # Occupied blocks per task id, per block age (Count)
system.cpu0.dcache.tags.ageTaskId_1024::2           35                       # Occupied blocks per task id, per block age (Count)
system.cpu0.dcache.tags.ageTaskId_1024::3            3                       # Occupied blocks per task id, per block age (Count)
system.cpu0.dcache.tags.ratioOccsTaskId::1024            1                       # Ratio of occupied blocks and all blocks, per task id (Ratio)
system.cpu0.dcache.tags.tagAccesses         152388599                       # Number of tag accesses (Count)
system.cpu0.dcache.tags.dataAccesses        152388599                       # Number of data accesses (Count)
system.cpu0.dcache.tags.power_state.pwrStateResidencyTicks::UNDEFINED 20805141497532                       # Cumulative time (in ticks) in various power states (Tick)
system.cpu0.exec_context.thread_0.numMatAluAccesses            0                       # Number of matrix alu accesses (Count)
system.cpu0.exec_context.thread_0.numCallsReturns     18934983                       # Number of times a function call or return occured (Count)
system.cpu0.exec_context.thread_0.numMatInsts            0                       # Number of matrix instructions (Count)
system.cpu0.exec_context.thread_0.numIdleCycles 28901615729.295677                       # Number of idle cycles (Cycle)
system.cpu0.exec_context.thread_0.numBusyCycles 237372632.704323                       # Number of busy cycles (Cycle)
system.cpu0.exec_context.thread_0.notIdleFraction     0.008146                       # Percentage of non-idle cycles (Ratio)
system.cpu0.exec_context.thread_0.idleFraction     0.991854                       # Percentage of idle cycles (Ratio)
system.cpu0.executeStats0.numInsts                  0                       # Number of executed instructions (Count)
system.cpu0.executeStats0.numNop                    0                       # Number of nop insts executed (Count)
system.cpu0.executeStats0.numBranches               0                       # Number of branches executed (Count)
system.cpu0.executeStats0.numLoadInsts              0                       # Number of load instructions executed (Count)
system.cpu0.executeStats0.numStoreInsts      75289028                       # Number of stores executed (Count)
system.cpu0.executeStats0.instRate                  0                       # Inst execution rate ((Count/Cycle))
system.cpu0.executeStats0.numFpRegWrites            0                       # Number of times the floating registers were written (Count)
system.cpu0.executeStats0.numIntAluAccesses    224432720                       # Number of integer alu accesses (Count)
system.cpu0.executeStats0.numIntRegReads    249069925                       # Number of times the integer registers were read (Count)
system.cpu0.executeStats0.numIntRegWrites    168413448                       # Number of times the integer registers were written (Count)
system.cpu0.executeStats0.numMemRefs         75289028                       # Number of memory refs (Count)
system.cpu0.executeStats0.numMiscRegReads     16068384                       # Number of times the Misc registers were read (Count)
system.cpu0.executeStats0.numMiscRegWrites      2103248                       # Number of times the Misc registers were written (Count)
system.cpu0.executeStats0.numVecAluAccesses       573853                       # Number of vector alu accesses (Count)
system.cpu0.executeStats0.numVecRegReads       825398                       # Number of times the vector registers were read (Count)
system.cpu0.executeStats0.numVecRegWrites       505340                       # Number of times the vector registers were written (Count)
system.cpu0.executeStats0.numDiscardedOps            0                       # Number of ops (including micro ops) which were discarded before commit (Count)
system.cpu0.fetchStats0.numInsts            195777265                       # Number of instructions fetched (thread level) (Count)
system.cpu0.fetchStats0.numOps              237438763                       # Number of ops (including micro ops) fetched (thread level) (Count)
system.cpu0.fetchStats0.fetchRate            0.006719                       # Number of inst fetches per cycle ((Count/Cycle))
system.cpu0.fetchStats0.numBranches          41694799                       # Number of branches fetched (Count)
system.cpu0.fetchStats0.branchRate           0.001431                       # Number of branch fetches per cycle (Ratio)
system.cpu0.fetchStats0.numFetchSuspends            0                       # Number of times Execute suspended instruction fetching (Count)
system.cpu0.icache.demandHits::cpu0.inst    192182959                       # number of demand (read+write) hits (Count)
system.cpu0.icache.demandHits::total        192182959                       # number of demand (read+write) hits (Count)
system.cpu0.icache.overallHits::cpu0.inst    192182959                       # number of overall hits (Count)
system.cpu0.icache.overallHits::total       192182959                       # number of overall hits (Count)
system.cpu0.icache.demandMisses::cpu0.inst      3530743                       # number of demand (read+write) misses (Count)
system.cpu0.icache.demandMisses::total        3530743                       # number of demand (read+write) misses (Count)
system.cpu0.icache.overallMisses::cpu0.inst      3530743                       # number of overall misses (Count)
system.cpu0.icache.overallMisses::total       3530743                       # number of overall misses (Count)
system.cpu0.icache.demandAccesses::cpu0.inst    195713702                       # number of demand (read+write) accesses (Count)
system.cpu0.icache.demandAccesses::total    195713702                       # number of demand (read+write) accesses (Count)
system.cpu0.icache.overallAccesses::cpu0.inst    195713702                       # number of overall (read+write) accesses (Count)
system.cpu0.icache.overallAccesses::total    195713702                       # number of overall (read+write) accesses (Count)
system.cpu0.icache.demandMissRate::cpu0.inst     0.018040                       # miss rate for demand accesses (Ratio)
system.cpu0.icache.demandMissRate::total     0.018040                       # miss rate for demand accesses (Ratio)
system.cpu0.icache.overallMissRate::cpu0.inst     0.018040                       # miss rate for overall accesses (Ratio)
system.cpu0.icache.overallMissRate::total     0.018040                       # miss rate for overall accesses (Ratio)
system.cpu0.icache.blockedCycles::no_mshrs            0                       # number of cycles access was blocked (Cycle)
system.cpu0.icache.blockedCycles::no_targets            0                       # number of cycles access was blocked (Cycle)
system.cpu0.icache.blockedCauses::no_mshrs            0                       # number of times access was blocked (Count)
system.cpu0.icache.blockedCauses::no_targets            0                       # number of times access was blocked (Count)
system.cpu0.icache.avgBlocked::no_mshrs           nan                       # average number of cycles each access was blocked ((Cycle/Count))
system.cpu0.icache.avgBlocked::no_targets          nan                       # average number of cycles each access was blocked ((Cycle/Count))
system.cpu0.icache.writebacks::writebacks      3530476                       # number of writebacks (Count)
system.cpu0.icache.writebacks::total          3530476                       # number of writebacks (Count)
system.cpu0.icache.replacements               3530475                       # number of replacements (Count)
system.cpu0.icache.ReadReq.hits::cpu0.inst    192182959                       # number of ReadReq hits (Count)
system.cpu0.icache.ReadReq.hits::total      192182959                       # number of ReadReq hits (Count)
system.cpu0.icache.ReadReq.misses::cpu0.inst      3530743                       # number of ReadReq misses (Count)
system.cpu0.icache.ReadReq.misses::total      3530743                       # number of ReadReq misses (Count)
system.cpu0.icache.ReadReq.accesses::cpu0.inst    195713702                       # number of ReadReq accesses(hits+misses) (Count)
system.cpu0.icache.ReadReq.accesses::total    195713702                       # number of ReadReq accesses(hits+misses) (Count)
system.cpu0.icache.ReadReq.missRate::cpu0.inst     0.018040                       # miss rate for ReadReq accesses (Ratio)
system.cpu0.icache.ReadReq.missRate::total     0.018040                       # miss rate for ReadReq accesses (Ratio)
system.cpu0.icache.power_state.pwrStateResidencyTicks::UNDEFINED 20805141497532                       # Cumulative time (in ticks) in various power states (Tick)
system.cpu0.icache.tags.tagsInUse          255.999297                       # Average ticks per tags in use ((Tick/Count))
system.cpu0.icache.tags.totalRefs           195713702                       # Total number of references to valid blocks. (Count)
system.cpu0.icache.tags.sampledRefs           3530743                       # Sample count of references to valid blocks. (Count)
system.cpu0.icache.tags.avgRefs             55.431308                       # Average number of references to valid blocks. ((Count/Count))
system.cpu0.icache.tags.warmupTick            6327468                       # The tick when the warmup percentage was hit. (Tick)
system.cpu0.icache.tags.occupancies::cpu0.inst   255.999297                       # Average occupied blocks per tick, per requestor ((Count/Tick))
system.cpu0.icache.tags.avgOccs::cpu0.inst     0.999997                       # Average percentage of cache occupancy ((Ratio/Tick))
system.cpu0.icache.tags.avgOccs::total       0.999997                       # Average percentage of cache occupancy ((Ratio/Tick))
system.cpu0.icache.tags.occupanciesTaskId::1024          256                       # Occupied blocks per task id (Count)
system.cpu0.icache.tags.ageTaskId_1024::0          227                       # Occupied blocks per task id, per block age (Count)
system.cpu0.icache.tags.ageTaskId_1024::1           29                       # Occupied blocks per task id, per block age (Count)
system.cpu0.icache.tags.ratioOccsTaskId::1024            1                       # Ratio of occupied blocks and all blocks, per task id (Ratio)
system.cpu0.icache.tags.tagAccesses         394958147                       # Number of tag accesses (Count)
system.cpu0.icache.tags.dataAccesses        394958147                       # Number of data accesses (Count)
system.cpu0.icache.tags.power_state.pwrStateResidencyTicks::UNDEFINED 20805141497532                       # Cumulative time (in ticks) in various power states (Tick)
system.cpu0.mmu.alignFaults                         0                       # Number of MMU faults due to alignment restrictions (Count)
system.cpu0.mmu.prefetchFaults                   1377                       # Number of MMU faults due to prefetch (Count)
system.cpu0.mmu.domainFaults                        0                       # Number of MMU faults due to domain restrictions (Count)
system.cpu0.mmu.permsFaults                       297                       # Number of MMU faults due to permissions restrictions (Count)
system.cpu0.mmu.dtb.readHits                 40829124                       # Read hits (Count)
system.cpu0.mmu.dtb.readMisses                  27475                       # Read misses (Count)
system.cpu0.mmu.dtb.writeHits                34480528                       # Write hits (Count)
system.cpu0.mmu.dtb.writeMisses                  3473                       # Write misses (Count)
system.cpu0.mmu.dtb.inserts                     28937                       # Number of times an entry is inserted into the TLB (Count)
system.cpu0.mmu.dtb.flushTlb                     5193                       # Number of times a TLB invalidation was requested (Count)
system.cpu0.mmu.dtb.flushedEntries               1577                       # Number of entries that have been flushed from TLB (Count)
system.cpu0.mmu.dtb.readAccesses             40856599                       # Read accesses (Count)
system.cpu0.mmu.dtb.writeAccesses            34484001                       # Write accesses (Count)
system.cpu0.mmu.dtb.hits                     75309652                       # Total TLB (inst and data) hits (Count)
system.cpu0.mmu.dtb.misses                      30948                       # Total TLB (inst and data) misses (Count)
system.cpu0.mmu.dtb.accesses                 75340600                       # Total TLB (inst and data) accesses (Count)
system.cpu0.mmu.dtb_walker.walks                 6691                       # Table walker walks requested (Count)
system.cpu0.mmu.dtb_walker.walksLongDescriptor         6691                       # Table walker walks initiated with long descriptors (Count)
system.cpu0.mmu.dtb_walker.walkWaitTime::samples         6691                       # Table walker wait (enqueue to first request) latency (Tick)
system.cpu0.mmu.dtb_walker.walkWaitTime::0         6691    100.00%    100.00% # Table walker wait (enqueue to first request) latency (Tick)
system.cpu0.mmu.dtb_walker.walkWaitTime::total         6691                       # Table walker wait (enqueue to first request) latency (Tick)
system.cpu0.mmu.dtb_walker.pendingWalks::samples      6340320                       # Table walker pending requests distribution (Tick)
system.cpu0.mmu.dtb_walker.pendingWalks::0      6340320    100.00%    100.00% # Table walker pending requests distribution (Tick)
system.cpu0.mmu.dtb_walker.pendingWalks::total      6340320                       # Table walker pending requests distribution (Tick)
system.cpu0.mmu.dtb_walker.pageSizes::4KiB         5675     93.69%     93.69% # Table walker page sizes translated (Count)
system.cpu0.mmu.dtb_walker.pageSizes::2MiB          382      6.31%    100.00% # Table walker page sizes translated (Count)
system.cpu0.mmu.dtb_walker.pageSizes::total         6057                       # Table walker page sizes translated (Count)
system.cpu0.mmu.dtb_walker.requestOrigin_Requested::Data         6691                       # Table walker requests started/completed, data/inst (Count)
system.cpu0.mmu.dtb_walker.requestOrigin_Requested::Inst            0                       # Table walker requests started/completed, data/inst (Count)
system.cpu0.mmu.dtb_walker.requestOrigin_Requested::total         6691                       # Table walker requests started/completed, data/inst (Count)
system.cpu0.mmu.dtb_walker.requestOrigin_Completed::Data         6057                       # Table walker requests started/completed, data/inst (Count)
system.cpu0.mmu.dtb_walker.requestOrigin_Completed::Inst            0                       # Table walker requests started/completed, data/inst (Count)
system.cpu0.mmu.dtb_walker.requestOrigin_Completed::total         6057                       # Table walker requests started/completed, data/inst (Count)
system.cpu0.mmu.dtb_walker.requestOrigin::total        12748                       # Table walker requests started/completed, data/inst (Count)
system.cpu0.mmu.dtb_walker.power_state.pwrStateResidencyTicks::UNDEFINED 20805141497532                       # Cumulative time (in ticks) in various power states (Tick)
system.cpu0.mmu.itb.instHits                195604021                       # Inst hits (Count)
system.cpu0.mmu.itb.instMisses                 109922                       # Inst misses (Count)
system.cpu0.mmu.itb.inserts                    109681                       # Number of times an entry is inserted into the TLB (Count)
system.cpu0.mmu.itb.flushTlb                     5193                       # Number of times a TLB invalidation was requested (Count)
system.cpu0.mmu.itb.flushedEntries                599                       # Number of entries that have been flushed from TLB (Count)
system.cpu0.mmu.itb.instAccesses            195713943                       # Inst accesses (Count)
system.cpu0.mmu.itb.hits                    195604021                       # Total TLB (inst and data) hits (Count)
system.cpu0.mmu.itb.misses                     109922                       # Total TLB (inst and data) misses (Count)
system.cpu0.mmu.itb.accesses                195713943                       # Total TLB (inst and data) accesses (Count)
system.cpu0.mmu.itb_walker.walks                 6853                       # Table walker walks requested (Count)
system.cpu0.mmu.itb_walker.walksLongDescriptor         6853                       # Table walker walks initiated with long descriptors (Count)
system.cpu0.mmu.itb_walker.walkWaitTime::samples         6853                       # Table walker wait (enqueue to first request) latency (Tick)
system.cpu0.mmu.itb_walker.walkWaitTime::0         6853    100.00%    100.00% # Table walker wait (enqueue to first request) latency (Tick)
system.cpu0.mmu.itb_walker.walkWaitTime::total         6853                       # Table walker wait (enqueue to first request) latency (Tick)
system.cpu0.mmu.itb_walker.pendingWalks::samples      6327468                       # Table walker pending requests distribution (Tick)
system.cpu0.mmu.itb_walker.pendingWalks::0      6327468    100.00%    100.00% # Table walker pending requests distribution (Tick)
system.cpu0.mmu.itb_walker.pendingWalks::total      6327468                       # Table walker pending requests distribution (Tick)
system.cpu0.mmu.itb_walker.pageSizes::4KiB         6545     98.99%     98.99% # Table walker page sizes translated (Count)
system.cpu0.mmu.itb_walker.pageSizes::2MiB           67      1.01%    100.00% # Table walker page sizes translated (Count)
system.cpu0.mmu.itb_walker.pageSizes::total         6612                       # Table walker page sizes translated (Count)
system.cpu0.mmu.itb_walker.requestOrigin_Requested::Data            0                       # Table walker requests started/completed, data/inst (Count)
system.cpu0.mmu.itb_walker.requestOrigin_Requested::Inst         6853                       # Table walker requests started/completed, data/inst (Count)
system.cpu0.mmu.itb_walker.requestOrigin_Requested::total         6853                       # Table walker requests started/completed, data/inst (Count)
system.cpu0.mmu.itb_walker.requestOrigin_Completed::Data            0                       # Table walker requests started/completed, data/inst (Count)
system.cpu0.mmu.itb_walker.requestOrigin_Completed::Inst         6612                       # Table walker requests started/completed, data/inst (Count)
system.cpu0.mmu.itb_walker.requestOrigin_Completed::total         6612                       # Table walker requests started/completed, data/inst (Count)
system.cpu0.mmu.itb_walker.requestOrigin::total        13465                       # Table walker requests started/completed, data/inst (Count)
system.cpu0.mmu.itb_walker.power_state.pwrStateResidencyTicks::UNDEFINED 20805141497532                       # Cumulative time (in ticks) in various power states (Tick)
system.cpu0.mmu.l2_shared.partialHits           12056                       # partial translation hits (Count)
system.cpu0.mmu.l2_shared.instHits             109714                       # Inst hits (Count)
system.cpu0.mmu.l2_shared.instMisses              208                       # Inst misses (Count)
system.cpu0.mmu.l2_shared.readHits              25472                       # Read hits (Count)
system.cpu0.mmu.l2_shared.readMisses             2003                       # Read misses (Count)
system.cpu0.mmu.l2_shared.writeHits              2819                       # Write hits (Count)
system.cpu0.mmu.l2_shared.writeMisses             654                       # Write misses (Count)
system.cpu0.mmu.l2_shared.inserts               13818                       # Number of times an entry is inserted into the TLB (Count)
system.cpu0.mmu.l2_shared.flushTlb               5193                       # Number of times a TLB invalidation was requested (Count)
system.cpu0.mmu.l2_shared.flushedEntries         5698                       # Number of entries that have been flushed from TLB (Count)
system.cpu0.mmu.l2_shared.readAccesses          27475                       # Read accesses (Count)
system.cpu0.mmu.l2_shared.writeAccesses          3473                       # Write accesses (Count)
system.cpu0.mmu.l2_shared.instAccesses         109922                       # Inst accesses (Count)
system.cpu0.mmu.l2_shared.hits                 138005                       # Total TLB (inst and data) hits (Count)
system.cpu0.mmu.l2_shared.misses                 2865                       # Total TLB (inst and data) misses (Count)
system.cpu0.mmu.l2_shared.accesses             140870                       # Total TLB (inst and data) accesses (Count)
system.cpu0.mmu.stage2_dtb.readHits                 0                       # Read hits (Count)
system.cpu0.mmu.stage2_dtb.readMisses               0                       # Read misses (Count)
system.cpu0.mmu.stage2_dtb.writeHits                0                       # Write hits (Count)
system.cpu0.mmu.stage2_dtb.writeMisses              0                       # Write misses (Count)
system.cpu0.mmu.stage2_dtb.inserts                  0                       # Number of times an entry is inserted into the TLB (Count)
system.cpu0.mmu.stage2_dtb.flushTlb                 0                       # Number of times a TLB invalidation was requested (Count)
system.cpu0.mmu.stage2_dtb.flushedEntries            0                       # Number of entries that have been flushed from TLB (Count)
system.cpu0.mmu.stage2_dtb.readAccesses             0                       # Read accesses (Count)
system.cpu0.mmu.stage2_dtb.writeAccesses            0                       # Write accesses (Count)
system.cpu0.mmu.stage2_dtb.hits                     0                       # Total TLB (inst and data) hits (Count)
system.cpu0.mmu.stage2_dtb.misses                   0                       # Total TLB (inst and data) misses (Count)
system.cpu0.mmu.stage2_dtb.accesses                 0                       # Total TLB (inst and data) accesses (Count)
system.cpu0.mmu.stage2_dtb_walker.walks             0                       # Table walker walks requested (Count)
system.cpu0.mmu.stage2_dtb_walker.requestOrigin_Requested::Data            0                       # Table walker requests started/completed, data/inst (Count)
system.cpu0.mmu.stage2_dtb_walker.requestOrigin_Requested::Inst            0                       # Table walker requests started/completed, data/inst (Count)
system.cpu0.mmu.stage2_dtb_walker.requestOrigin_Requested::total            0                       # Table walker requests started/completed, data/inst (Count)
system.cpu0.mmu.stage2_dtb_walker.requestOrigin_Completed::Data            0                       # Table walker requests started/completed, data/inst (Count)
system.cpu0.mmu.stage2_dtb_walker.requestOrigin_Completed::Inst            0                       # Table walker requests started/completed, data/inst (Count)
system.cpu0.mmu.stage2_dtb_walker.requestOrigin_Completed::total            0                       # Table walker requests started/completed, data/inst (Count)
system.cpu0.mmu.stage2_dtb_walker.requestOrigin::total            0                       # Table walker requests started/completed, data/inst (Count)
system.cpu0.mmu.stage2_dtb_walker.power_state.pwrStateResidencyTicks::UNDEFINED 20805141497532                       # Cumulative time (in ticks) in various power states (Tick)
system.cpu0.mmu.stage2_itb.instHits                 0                       # Inst hits (Count)
system.cpu0.mmu.stage2_itb.instMisses               0                       # Inst misses (Count)
system.cpu0.mmu.stage2_itb.inserts                  0                       # Number of times an entry is inserted into the TLB (Count)
system.cpu0.mmu.stage2_itb.flushTlb                 0                       # Number of times a TLB invalidation was requested (Count)
system.cpu0.mmu.stage2_itb.flushedEntries            0                       # Number of entries that have been flushed from TLB (Count)
system.cpu0.mmu.stage2_itb.instAccesses             0                       # Inst accesses (Count)
system.cpu0.mmu.stage2_itb.hits                     0                       # Total TLB (inst and data) hits (Count)
system.cpu0.mmu.stage2_itb.misses                   0                       # Total TLB (inst and data) misses (Count)
system.cpu0.mmu.stage2_itb.accesses                 0                       # Total TLB (inst and data) accesses (Count)
system.cpu0.mmu.stage2_itb_walker.walks             0                       # Table walker walks requested (Count)
system.cpu0.mmu.stage2_itb_walker.requestOrigin_Requested::Data            0                       # Table walker requests started/completed, data/inst (Count)
system.cpu0.mmu.stage2_itb_walker.requestOrigin_Requested::Inst            0                       # Table walker requests started/completed, data/inst (Count)
system.cpu0.mmu.stage2_itb_walker.requestOrigin_Requested::total            0                       # Table walker requests started/completed, data/inst (Count)
system.cpu0.mmu.stage2_itb_walker.requestOrigin_Completed::Data            0                       # Table walker requests started/completed, data/inst (Count)
system.cpu0.mmu.stage2_itb_walker.requestOrigin_Completed::Inst            0                       # Table walker requests started/completed, data/inst (Count)
system.cpu0.mmu.stage2_itb_walker.requestOrigin_Completed::total            0                       # Table walker requests started/completed, data/inst (Count)
system.cpu0.mmu.stage2_itb_walker.requestOrigin::total            0                       # Table walker requests started/completed, data/inst (Count)
system.cpu0.mmu.stage2_itb_walker.power_state.pwrStateResidencyTicks::UNDEFINED 20805141497532                       # Cumulative time (in ticks) in various power states (Tick)
system.cpu0.power_state.numTransitions         269443                       # Number of power state transitions (Count)
system.cpu0.power_state.ticksClkGated::samples       134720                       # Distribution of time spent in the clock gated state (Tick)
system.cpu0.power_state.ticksClkGated::mean 153174422.664719                       # Distribution of time spent in the clock gated state (Tick)
system.cpu0.power_state.ticksClkGated::stdev 32282715.796094                       # Distribution of time spent in the clock gated state (Tick)
system.cpu0.power_state.ticksClkGated::underflows          996      0.74%      0.74% # Distribution of time spent in the clock gated state (Tick)
system.cpu0.power_state.ticksClkGated::1000-5e+10       133724     99.26%    100.00% # Distribution of time spent in the clock gated state (Tick)
system.cpu0.power_state.ticksClkGated::min_value          714                       # Distribution of time spent in the clock gated state (Tick)
system.cpu0.power_state.ticksClkGated::max_value    162721614                       # Distribution of time spent in the clock gated state (Tick)
system.cpu0.power_state.ticksClkGated::total       134720                       # Distribution of time spent in the clock gated state (Tick)
system.cpu0.power_state.pwrStateResidencyTicks::ON 169483276141                       # Cumulative time (in ticks) in various power states (Tick)
system.cpu0.power_state.pwrStateResidencyTicks::CLK_GATED 20635658221391                       # Cumulative time (in ticks) in various power states (Tick)
system.cpu0.thread_0.numInsts                       0                       # Number of Instructions committed (Count)
system.cpu0.thread_0.numOps                         0                       # Number of Ops committed (Count)
system.cpu0.thread_0.numMemRefs                     0                       # Number of Memory References (Count)
system.cpu1.numCycles                     29138834343                       # Number of cpu cycles simulated (Cycle)
system.cpu1.cpi                            213.220417                       # CPI: cycles per instruction (core level) ((Cycle/Count))
system.cpu1.ipc                              0.004690                       # IPC: instructions per cycle (core level) ((Count/Cycle))
system.cpu1.numWorkItemsStarted                     0                       # Number of work items this cpu started (Count)
system.cpu1.numWorkItemsCompleted                   0                       # Number of work items this cpu completed (Count)
system.cpu1.commitStats0.numInsts           136660620                       # Number of instructions committed (thread level) (Count)
system.cpu1.commitStats0.numOps             169837756                       # Number of ops (including micro ops) committed (thread level) (Count)
system.cpu1.commitStats0.numInstsNotNOP             0                       # Number of instructions committed excluding NOPs or prefetches (Count)
system.cpu1.commitStats0.numOpsNotNOP               0                       # Number of Ops (including micro ops) Simulated (Count)
system.cpu1.commitStats0.cpi               213.220417                       # CPI: cycles per instruction (thread level) ((Cycle/Count))
system.cpu1.commitStats0.ipc                 0.004690                       # IPC: instructions per cycle (thread level) ((Count/Cycle))
system.cpu1.commitStats0.numMemRefs                 0                       # Number of memory references committed (Count)
system.cpu1.commitStats0.numFpInsts                 0                       # Number of float instructions (Count)
system.cpu1.commitStats0.numIntInsts        163177424                       # Number of integer instructions (Count)
system.cpu1.commitStats0.numLoadInsts        29972503                       # Number of load instructions (Count)
system.cpu1.commitStats0.numStoreInsts       25360542                       # Number of store instructions (Count)
system.cpu1.commitStats0.numVecInsts           128865                       # Number of vector instructions (Count)
system.cpu1.commitStats0.committedInstType::No_OpClass        10953      0.01%      0.01% # Class of committed instruction. (Count)
system.cpu1.commitStats0.committedInstType::IntAlu    114234790     67.26%     67.27% # Class of committed instruction. (Count)
system.cpu1.commitStats0.committedInstType::IntMult       149476      0.09%     67.36% # Class of committed instruction. (Count)
system.cpu1.commitStats0.committedInstType::IntDiv        28047      0.02%     67.37% # Class of committed instruction. (Count)
system.cpu1.commitStats0.committedInstType::FloatAdd            0      0.00%     67.37% # Class of committed instruction. (Count)
system.cpu1.commitStats0.committedInstType::FloatCmp            0      0.00%     67.37% # Class of committed instruction. (Count)
system.cpu1.commitStats0.committedInstType::FloatCvt            0      0.00%     67.37% # Class of committed instruction. (Count)
system.cpu1.commitStats0.committedInstType::FloatMult            0      0.00%     67.37% # Class of committed instruction. (Count)
system.cpu1.commitStats0.committedInstType::FloatMultAcc            0      0.00%     67.37% # Class of committed instruction. (Count)
system.cpu1.commitStats0.committedInstType::FloatDiv            0      0.00%     67.37% # Class of committed instruction. (Count)
system.cpu1.commitStats0.committedInstType::FloatMisc            0      0.00%     67.37% # Class of committed instruction. (Count)
system.cpu1.commitStats0.committedInstType::FloatSqrt            0      0.00%     67.37% # Class of committed instruction. (Count)
system.cpu1.commitStats0.committedInstType::SimdAdd        17386      0.01%     67.38% # Class of committed instruction. (Count)
system.cpu1.commitStats0.committedInstType::SimdAddAcc            0      0.00%     67.38% # Class of committed instruction. (Count)
system.cpu1.commitStats0.committedInstType::SimdAlu        26436      0.02%     67.40% # Class of committed instruction. (Count)
system.cpu1.commitStats0.committedInstType::SimdCmp        18510      0.01%     67.41% # Class of committed instruction. (Count)
system.cpu1.commitStats0.committedInstType::SimdCvt            0      0.00%     67.41% # Class of committed instruction. (Count)
system.cpu1.commitStats0.committedInstType::SimdMisc        19113      0.01%     67.42% # Class of committed instruction. (Count)
system.cpu1.commitStats0.committedInstType::SimdMult            0      0.00%     67.42% # Class of committed instruction. (Count)
system.cpu1.commitStats0.committedInstType::SimdMultAcc            0      0.00%     67.42% # Class of committed instruction. (Count)
system.cpu1.commitStats0.committedInstType::SimdMatMultAcc            0      0.00%     67.42% # Class of committed instruction. (Count)
system.cpu1.commitStats0.committedInstType::SimdShift            0      0.00%     67.42% # Class of committed instruction. (Count)
system.cpu1.commitStats0.committedInstType::SimdShiftAcc            0      0.00%     67.42% # Class of committed instruction. (Count)
system.cpu1.commitStats0.committedInstType::SimdDiv            0      0.00%     67.42% # Class of committed instruction. (Count)
system.cpu1.commitStats0.committedInstType::SimdSqrt            0      0.00%     67.42% # Class of committed instruction. (Count)
system.cpu1.commitStats0.committedInstType::SimdFloatAdd            0      0.00%     67.42% # Class of committed instruction. (Count)
system.cpu1.commitStats0.committedInstType::SimdFloatAlu            0      0.00%     67.42% # Class of committed instruction. (Count)
system.cpu1.commitStats0.committedInstType::SimdFloatCmp            0      0.00%     67.42% # Class of committed instruction. (Count)
system.cpu1.commitStats0.committedInstType::SimdFloatCvt            0      0.00%     67.42% # Class of committed instruction. (Count)
system.cpu1.commitStats0.committedInstType::SimdFloatDiv            0      0.00%     67.42% # Class of committed instruction. (Count)
system.cpu1.commitStats0.committedInstType::SimdFloatMisc            0      0.00%     67.42% # Class of committed instruction. (Count)
system.cpu1.commitStats0.committedInstType::SimdFloatMult            0      0.00%     67.42% # Class of committed instruction. (Count)
system.cpu1.commitStats0.committedInstType::SimdFloatMultAcc            0      0.00%     67.42% # Class of committed instruction. (Count)
system.cpu1.commitStats0.committedInstType::SimdFloatMatMultAcc            0      0.00%     67.42% # Class of committed instruction. (Count)
system.cpu1.commitStats0.committedInstType::SimdFloatSqrt            0      0.00%     67.42% # Class of committed instruction. (Count)
system.cpu1.commitStats0.committedInstType::SimdReduceAdd            0      0.00%     67.42% # Class of committed instruction. (Count)
system.cpu1.commitStats0.committedInstType::SimdReduceAlu            0      0.00%     67.42% # Class of committed instruction. (Count)
system.cpu1.commitStats0.committedInstType::SimdReduceCmp            0      0.00%     67.42% # Class of committed instruction. (Count)
system.cpu1.commitStats0.committedInstType::SimdFloatReduceAdd            0      0.00%     67.42% # Class of committed instruction. (Count)
system.cpu1.commitStats0.committedInstType::SimdFloatReduceCmp            0      0.00%     67.42% # Class of committed instruction. (Count)
system.cpu1.commitStats0.committedInstType::SimdAes            0      0.00%     67.42% # Class of committed instruction. (Count)
system.cpu1.commitStats0.committedInstType::SimdAesMix            0      0.00%     67.42% # Class of committed instruction. (Count)
system.cpu1.commitStats0.committedInstType::SimdSha1Hash            0      0.00%     67.42% # Class of committed instruction. (Count)
system.cpu1.commitStats0.committedInstType::SimdSha1Hash2            0      0.00%     67.42% # Class of committed instruction. (Count)
system.cpu1.commitStats0.committedInstType::SimdSha256Hash            0      0.00%     67.42% # Class of committed instruction. (Count)
system.cpu1.commitStats0.committedInstType::SimdSha256Hash2            0      0.00%     67.42% # Class of committed instruction. (Count)
system.cpu1.commitStats0.committedInstType::SimdShaSigma2            0      0.00%     67.42% # Class of committed instruction. (Count)
system.cpu1.commitStats0.committedInstType::SimdShaSigma3            0      0.00%     67.42% # Class of committed instruction. (Count)
system.cpu1.commitStats0.committedInstType::SimdPredAlu            0      0.00%     67.42% # Class of committed instruction. (Count)
system.cpu1.commitStats0.committedInstType::Matrix            0      0.00%     67.42% # Class of committed instruction. (Count)
system.cpu1.commitStats0.committedInstType::MatrixMov            0      0.00%     67.42% # Class of committed instruction. (Count)
system.cpu1.commitStats0.committedInstType::MatrixOP            0      0.00%     67.42% # Class of committed instruction. (Count)
system.cpu1.commitStats0.committedInstType::MemRead     29972503     17.65%     85.07% # Class of committed instruction. (Count)
system.cpu1.commitStats0.committedInstType::MemWrite     25360542     14.93%    100.00% # Class of committed instruction. (Count)
system.cpu1.commitStats0.committedInstType::FloatMemRead            0      0.00%    100.00% # Class of committed instruction. (Count)
system.cpu1.commitStats0.committedInstType::FloatMemWrite            0      0.00%    100.00% # Class of committed instruction. (Count)
system.cpu1.commitStats0.committedInstType::IprAccess            0      0.00%    100.00% # Class of committed instruction. (Count)
system.cpu1.commitStats0.committedInstType::InstPrefetch            0      0.00%    100.00% # Class of committed instruction. (Count)
system.cpu1.commitStats0.committedInstType::VectorUnitStrideLoad            0      0.00%    100.00% # Class of committed instruction. (Count)
system.cpu1.commitStats0.committedInstType::VectorUnitStrideStore            0      0.00%    100.00% # Class of committed instruction. (Count)
system.cpu1.commitStats0.committedInstType::VectorUnitStrideMaskLoad            0      0.00%    100.00% # Class of committed instruction. (Count)
system.cpu1.commitStats0.committedInstType::VectorUnitStrideMaskStore            0      0.00%    100.00% # Class of committed instruction. (Count)
system.cpu1.commitStats0.committedInstType::VectorStridedLoad            0      0.00%    100.00% # Class of committed instruction. (Count)
system.cpu1.commitStats0.committedInstType::VectorStridedStore            0      0.00%    100.00% # Class of committed instruction. (Count)
system.cpu1.commitStats0.committedInstType::VectorIndexedLoad            0      0.00%    100.00% # Class of committed instruction. (Count)
system.cpu1.commitStats0.committedInstType::VectorIndexedStore            0      0.00%    100.00% # Class of committed instruction. (Count)
system.cpu1.commitStats0.committedInstType::VectorUnitStrideFaultOnlyFirstLoad            0      0.00%    100.00% # Class of committed instruction. (Count)
system.cpu1.commitStats0.committedInstType::VectorWholeRegisterLoad            0      0.00%    100.00% # Class of committed instruction. (Count)
system.cpu1.commitStats0.committedInstType::VectorWholeRegisterStore            0      0.00%    100.00% # Class of committed instruction. (Count)
system.cpu1.commitStats0.committedInstType::VectorIntegerArith            0      0.00%    100.00% # Class of committed instruction. (Count)
system.cpu1.commitStats0.committedInstType::VectorFloatArith            0      0.00%    100.00% # Class of committed instruction. (Count)
system.cpu1.commitStats0.committedInstType::VectorFloatConvert            0      0.00%    100.00% # Class of committed instruction. (Count)
system.cpu1.commitStats0.committedInstType::VectorIntegerReduce            0      0.00%    100.00% # Class of committed instruction. (Count)
system.cpu1.commitStats0.committedInstType::VectorFloatReduce            0      0.00%    100.00% # Class of committed instruction. (Count)
system.cpu1.commitStats0.committedInstType::VectorMisc            0      0.00%    100.00% # Class of committed instruction. (Count)
system.cpu1.commitStats0.committedInstType::VectorIntegerExtension            0      0.00%    100.00% # Class of committed instruction. (Count)
system.cpu1.commitStats0.committedInstType::VectorConfig            0      0.00%    100.00% # Class of committed instruction. (Count)
system.cpu1.commitStats0.committedInstType::total    169837756                       # Class of committed instruction. (Count)
system.cpu1.commitStats0.committedControl::IsControl     28710532                       # Class of control type instructions committed (Count)
system.cpu1.commitStats0.committedControl::IsDirectControl     20748287                       # Class of control type instructions committed (Count)
system.cpu1.commitStats0.committedControl::IsIndirectControl      7953685                       # Class of control type instructions committed (Count)
system.cpu1.commitStats0.committedControl::IsCondControl     12779795                       # Class of control type instructions committed (Count)
system.cpu1.commitStats0.committedControl::IsUncondControl     15922177                       # Class of control type instructions committed (Count)
system.cpu1.commitStats0.committedControl::IsCall      7751103                       # Class of control type instructions committed (Count)
system.cpu1.commitStats0.committedControl::IsReturn      7749700                       # Class of control type instructions committed (Count)
system.cpu1.dcache.demandHits::cpu1.data     52861467                       # number of demand (read+write) hits (Count)
system.cpu1.dcache.demandHits::total         52861467                       # number of demand (read+write) hits (Count)
system.cpu1.dcache.overallHits::cpu1.data     53284698                       # number of overall hits (Count)
system.cpu1.dcache.overallHits::total        53284698                       # number of overall hits (Count)
system.cpu1.dcache.demandMisses::cpu1.data      1024656                       # number of demand (read+write) misses (Count)
system.cpu1.dcache.demandMisses::total        1024656                       # number of demand (read+write) misses (Count)
system.cpu1.dcache.overallMisses::cpu1.data      1066701                       # number of overall misses (Count)
system.cpu1.dcache.overallMisses::total       1066701                       # number of overall misses (Count)
system.cpu1.dcache.demandAccesses::cpu1.data     53886123                       # number of demand (read+write) accesses (Count)
system.cpu1.dcache.demandAccesses::total     53886123                       # number of demand (read+write) accesses (Count)
system.cpu1.dcache.overallAccesses::cpu1.data     54351399                       # number of overall (read+write) accesses (Count)
system.cpu1.dcache.overallAccesses::total     54351399                       # number of overall (read+write) accesses (Count)
system.cpu1.dcache.demandMissRate::cpu1.data     0.019015                       # miss rate for demand accesses (Ratio)
system.cpu1.dcache.demandMissRate::total     0.019015                       # miss rate for demand accesses (Ratio)
system.cpu1.dcache.overallMissRate::cpu1.data     0.019626                       # miss rate for overall accesses (Ratio)
system.cpu1.dcache.overallMissRate::total     0.019626                       # miss rate for overall accesses (Ratio)
system.cpu1.dcache.blockedCycles::no_mshrs            0                       # number of cycles access was blocked (Cycle)
system.cpu1.dcache.blockedCycles::no_targets            0                       # number of cycles access was blocked (Cycle)
system.cpu1.dcache.blockedCauses::no_mshrs            0                       # number of times access was blocked (Count)
system.cpu1.dcache.blockedCauses::no_targets            0                       # number of times access was blocked (Count)
system.cpu1.dcache.avgBlocked::no_mshrs           nan                       # average number of cycles each access was blocked ((Cycle/Count))
system.cpu1.dcache.avgBlocked::no_targets          nan                       # average number of cycles each access was blocked ((Cycle/Count))
system.cpu1.dcache.writebacks::writebacks       576485                       # number of writebacks (Count)
system.cpu1.dcache.writebacks::total           576485                       # number of writebacks (Count)
system.cpu1.dcache.replacements                975868                       # number of replacements (Count)
system.cpu1.dcache.LoadLockedReq.hits::cpu1.data       462009                       # number of LoadLockedReq hits (Count)
system.cpu1.dcache.LoadLockedReq.hits::total       462009                       # number of LoadLockedReq hits (Count)
system.cpu1.dcache.LoadLockedReq.misses::cpu1.data         3257                       # number of LoadLockedReq misses (Count)
system.cpu1.dcache.LoadLockedReq.misses::total         3257                       # number of LoadLockedReq misses (Count)
system.cpu1.dcache.LoadLockedReq.accesses::cpu1.data       465266                       # number of LoadLockedReq accesses(hits+misses) (Count)
system.cpu1.dcache.LoadLockedReq.accesses::total       465266                       # number of LoadLockedReq accesses(hits+misses) (Count)
system.cpu1.dcache.LoadLockedReq.missRate::cpu1.data     0.007000                       # miss rate for LoadLockedReq accesses (Ratio)
system.cpu1.dcache.LoadLockedReq.missRate::total     0.007000                       # miss rate for LoadLockedReq accesses (Ratio)
system.cpu1.dcache.ReadReq.hits::cpu1.data     28323766                       # number of ReadReq hits (Count)
system.cpu1.dcache.ReadReq.hits::total       28323766                       # number of ReadReq hits (Count)
system.cpu1.dcache.ReadReq.misses::cpu1.data       723311                       # number of ReadReq misses (Count)
system.cpu1.dcache.ReadReq.misses::total       723311                       # number of ReadReq misses (Count)
system.cpu1.dcache.ReadReq.accesses::cpu1.data     29047077                       # number of ReadReq accesses(hits+misses) (Count)
system.cpu1.dcache.ReadReq.accesses::total     29047077                       # number of ReadReq accesses(hits+misses) (Count)
system.cpu1.dcache.ReadReq.missRate::cpu1.data     0.024901                       # miss rate for ReadReq accesses (Ratio)
system.cpu1.dcache.ReadReq.missRate::total     0.024901                       # miss rate for ReadReq accesses (Ratio)
system.cpu1.dcache.SoftPFExReq.hits::cpu1.data       417396                       # number of SoftPFExReq hits (Count)
system.cpu1.dcache.SoftPFExReq.hits::total       417396                       # number of SoftPFExReq hits (Count)
system.cpu1.dcache.SoftPFExReq.misses::cpu1.data        35031                       # number of SoftPFExReq misses (Count)
system.cpu1.dcache.SoftPFExReq.misses::total        35031                       # number of SoftPFExReq misses (Count)
system.cpu1.dcache.SoftPFExReq.accesses::cpu1.data       452427                       # number of SoftPFExReq accesses(hits+misses) (Count)
system.cpu1.dcache.SoftPFExReq.accesses::total       452427                       # number of SoftPFExReq accesses(hits+misses) (Count)
system.cpu1.dcache.SoftPFExReq.missRate::cpu1.data     0.077429                       # miss rate for SoftPFExReq accesses (Ratio)
system.cpu1.dcache.SoftPFExReq.missRate::total     0.077429                       # miss rate for SoftPFExReq accesses (Ratio)
system.cpu1.dcache.SoftPFReq.hits::cpu1.data         5835                       # number of SoftPFReq hits (Count)
system.cpu1.dcache.SoftPFReq.hits::total         5835                       # number of SoftPFReq hits (Count)
system.cpu1.dcache.SoftPFReq.misses::cpu1.data         7014                       # number of SoftPFReq misses (Count)
system.cpu1.dcache.SoftPFReq.misses::total         7014                       # number of SoftPFReq misses (Count)
system.cpu1.dcache.SoftPFReq.accesses::cpu1.data        12849                       # number of SoftPFReq accesses(hits+misses) (Count)
system.cpu1.dcache.SoftPFReq.accesses::total        12849                       # number of SoftPFReq accesses(hits+misses) (Count)
system.cpu1.dcache.SoftPFReq.missRate::cpu1.data     0.545879                       # miss rate for SoftPFReq accesses (Ratio)
system.cpu1.dcache.SoftPFReq.missRate::total     0.545879                       # miss rate for SoftPFReq accesses (Ratio)
system.cpu1.dcache.StoreCondReq.hits::cpu1.data       464782                       # number of StoreCondReq hits (Count)
system.cpu1.dcache.StoreCondReq.hits::total       464782                       # number of StoreCondReq hits (Count)
system.cpu1.dcache.StoreCondReq.misses::cpu1.data           43                       # number of StoreCondReq misses (Count)
system.cpu1.dcache.StoreCondReq.misses::total           43                       # number of StoreCondReq misses (Count)
system.cpu1.dcache.StoreCondReq.accesses::cpu1.data       464825                       # number of StoreCondReq accesses(hits+misses) (Count)
system.cpu1.dcache.StoreCondReq.accesses::total       464825                       # number of StoreCondReq accesses(hits+misses) (Count)
system.cpu1.dcache.StoreCondReq.missRate::cpu1.data     0.000093                       # miss rate for StoreCondReq accesses (Ratio)
system.cpu1.dcache.StoreCondReq.missRate::total     0.000093                       # miss rate for StoreCondReq accesses (Ratio)
system.cpu1.dcache.WriteLineReq.hits::cpu1.data        12582                       # number of WriteLineReq hits (Count)
system.cpu1.dcache.WriteLineReq.hits::total        12582                       # number of WriteLineReq hits (Count)
system.cpu1.dcache.WriteLineReq.misses::cpu1.data       119128                       # number of WriteLineReq misses (Count)
system.cpu1.dcache.WriteLineReq.misses::total       119128                       # number of WriteLineReq misses (Count)
system.cpu1.dcache.WriteLineReq.accesses::cpu1.data       131710                       # number of WriteLineReq accesses(hits+misses) (Count)
system.cpu1.dcache.WriteLineReq.accesses::total       131710                       # number of WriteLineReq accesses(hits+misses) (Count)
system.cpu1.dcache.WriteLineReq.missRate::cpu1.data     0.904472                       # miss rate for WriteLineReq accesses (Ratio)
system.cpu1.dcache.WriteLineReq.missRate::total     0.904472                       # miss rate for WriteLineReq accesses (Ratio)
system.cpu1.dcache.WriteReq.hits::cpu1.data     24525119                       # number of WriteReq hits (Count)
system.cpu1.dcache.WriteReq.hits::total      24525119                       # number of WriteReq hits (Count)
system.cpu1.dcache.WriteReq.misses::cpu1.data       182217                       # number of WriteReq misses (Count)
system.cpu1.dcache.WriteReq.misses::total       182217                       # number of WriteReq misses (Count)
system.cpu1.dcache.WriteReq.accesses::cpu1.data     24707336                       # number of WriteReq accesses(hits+misses) (Count)
system.cpu1.dcache.WriteReq.accesses::total     24707336                       # number of WriteReq accesses(hits+misses) (Count)
system.cpu1.dcache.WriteReq.missRate::cpu1.data     0.007375                       # miss rate for WriteReq accesses (Ratio)
system.cpu1.dcache.WriteReq.missRate::total     0.007375                       # miss rate for WriteReq accesses (Ratio)
system.cpu1.dcache.power_state.pwrStateResidencyTicks::UNDEFINED 20805141497532                       # Cumulative time (in ticks) in various power states (Tick)
system.cpu1.dcache.tags.tagsInUse          236.873560                       # Average ticks per tags in use ((Tick/Count))
system.cpu1.dcache.tags.totalRefs            55282313                       # Total number of references to valid blocks. (Count)
system.cpu1.dcache.tags.sampledRefs           1041188                       # Sample count of references to valid blocks. (Count)
system.cpu1.dcache.tags.avgRefs             53.095419                       # Average number of references to valid blocks. ((Count/Count))
system.cpu1.dcache.tags.warmupTick        91987975800                       # The tick when the warmup percentage was hit. (Tick)
system.cpu1.dcache.tags.occupancies::cpu1.data   236.873560                       # Average occupied blocks per tick, per requestor ((Count/Tick))
system.cpu1.dcache.tags.avgOccs::cpu1.data     0.925287                       # Average percentage of cache occupancy ((Ratio/Tick))
system.cpu1.dcache.tags.avgOccs::total       0.925287                       # Average percentage of cache occupancy ((Ratio/Tick))
[...]
system.realview.bootmem.bwInstRead::total           41                       # Instruction read bandwidth from this memory ((Byte/Second))
system.realview.bootmem.bwTotal::cpu0.inst           12                       # Total bandwidth to/from this memory ((Byte/Second))
system.realview.bootmem.bwTotal::cpu0.data            3                       # Total bandwidth to/from this memory ((Byte/Second))
system.realview.bootmem.bwTotal::cpu1.inst           10                       # Total bandwidth to/from this memory ((Byte/Second))
system.realview.bootmem.bwTotal::cpu1.data            2                       # Total bandwidth to/from this memory ((Byte/Second))
system.realview.bootmem.bwTotal::cpu2.inst           10                       # Total bandwidth to/from this memory ((Byte/Second))
system.realview.bootmem.bwTotal::cpu2.data            2                       # Total bandwidth to/from this memory ((Byte/Second))
system.realview.bootmem.bwTotal::cpu3.inst           10                       # Total bandwidth to/from this memory ((Byte/Second))
system.realview.bootmem.bwTotal::cpu3.data            2                       # Total bandwidth to/from this memory ((Byte/Second))
system.realview.bootmem.bwTotal::total             50                       # Total bandwidth to/from this memory ((Byte/Second))
system.realview.bootmem.power_state.pwrStateResidencyTicks::UNDEFINED 20805141497532                       # Cumulative time (in ticks) in various power states (Tick)
system.realview.clock24MHz.clock                41667                       # Clock period in ticks (Tick)
system.realview.clock32KHz.clock             31250000                       # Clock period in ticks (Tick)
system.realview.dcc.osc_cpu.clock               16667                       # Clock period in ticks (Tick)
system.realview.dcc.osc_ddr.clock               25000                       # Clock period in ticks (Tick)
system.realview.dcc.osc_hsbm.clock              25000                       # Clock period in ticks (Tick)
system.realview.dcc.osc_pxl.clock               42105                       # Clock period in ticks (Tick)
system.realview.dcc.osc_smb.clock               20000                       # Clock period in ticks (Tick)
system.realview.dcc.osc_sys.clock               16667                       # Clock period in ticks (Tick)
system.realview.el2_watchdog.power_state.pwrStateResidencyTicks::UNDEFINED 20805141497532                       # Cumulative time (in ticks) in various power states (Tick)
system.realview.energy_ctrl.power_state.pwrStateResidencyTicks::UNDEFINED 20805141497532                       # Cumulative time (in ticks) in various power states (Tick)
system.realview.flash0.power_state.pwrStateResidencyTicks::UNDEFINED 20805141497532                       # Cumulative time (in ticks) in various power states (Tick)
system.realview.flash1.power_state.pwrStateResidencyTicks::UNDEFINED 20805141497532                       # Cumulative time (in ticks) in various power states (Tick)
system.realview.generic_timer_mem.frames0.power_state.pwrStateResidencyTicks::UNDEFINED 20805141497532                       # Cumulative time (in ticks) in various power states (Tick)
system.realview.generic_timer_mem.frames1.power_state.pwrStateResidencyTicks::UNDEFINED 20805141497532                       # Cumulative time (in ticks) in various power states (Tick)
system.realview.generic_timer_mem.power_state.pwrStateResidencyTicks::UNDEFINED 20805141497532                       # Cumulative time (in ticks) in various power states (Tick)
system.realview.gic.power_state.pwrStateResidencyTicks::UNDEFINED 20805141497532                       # Cumulative time (in ticks) in various power states (Tick)
system.realview.gicv2m.power_state.pwrStateResidencyTicks::UNDEFINED 20805141497532                       # Cumulative time (in ticks) in various power states (Tick)
system.realview.io_voltage.voltage           3.300000                       # Voltage in Volts (Volt)
system.realview.kmi0.power_state.pwrStateResidencyTicks::UNDEFINED 20805141497532                       # Cumulative time (in ticks) in various power states (Tick)
system.realview.kmi1.power_state.pwrStateResidencyTicks::UNDEFINED 20805141497532                       # Cumulative time (in ticks) in various power states (Tick)
system.realview.mcc.osc_clcd.clock              42105                       # Clock period in ticks (Tick)
system.realview.mcc.osc_mcc.clock               20000                       # Clock period in ticks (Tick)
system.realview.mcc.osc_peripheral.clock        41667                       # Clock period in ticks (Tick)
system.realview.mcc.osc_system_bus.clock        41667                       # Clock period in ticks (Tick)
system.realview.non_trusted_sram.power_state.pwrStateResidencyTicks::UNDEFINED 20805141497532                       # Cumulative time (in ticks) in various power states (Tick)
system.realview.pci_host.power_state.pwrStateResidencyTicks::UNDEFINED 20805141497532                       # Cumulative time (in ticks) in various power states (Tick)
system.realview.pwr_ctrl.power_state.pwrStateResidencyTicks::UNDEFINED 20805141497532                       # Cumulative time (in ticks) in various power states (Tick)
system.realview.realview_io.power_state.pwrStateResidencyTicks::UNDEFINED 20805141497532                       # Cumulative time (in ticks) in various power states (Tick)
system.realview.rtc.power_state.pwrStateResidencyTicks::UNDEFINED 20805141497532                       # Cumulative time (in ticks) in various power states (Tick)
system.realview.system_watchdog.power_state.pwrStateResidencyTicks::UNDEFINED 20805141497532                       # Cumulative time (in ticks) in various power states (Tick)
system.realview.trusted_dram.power_state.pwrStateResidencyTicks::UNDEFINED 20805141497532                       # Cumulative time (in ticks) in various power states (Tick)
system.realview.trusted_sram.power_state.pwrStateResidencyTicks::UNDEFINED 20805141497532                       # Cumulative time (in ticks) in various power states (Tick)
system.realview.trusted_watchdog.power_state.pwrStateResidencyTicks::UNDEFINED 20805141497532                       # Cumulative time (in ticks) in various power states (Tick)
system.realview.uart0.power_state.pwrStateResidencyTicks::UNDEFINED 20805141497532                       # Cumulative time (in ticks) in various power states (Tick)
system.realview.uart1.power_state.pwrStateResidencyTicks::UNDEFINED 20805141497532                       # Cumulative time (in ticks) in various power states (Tick)
system.realview.uart2.power_state.pwrStateResidencyTicks::UNDEFINED 20805141497532                       # Cumulative time (in ticks) in various power states (Tick)
system.realview.uart3.power_state.pwrStateResidencyTicks::UNDEFINED 20805141497532                       # Cumulative time (in ticks) in various power states (Tick)
system.realview.vgic.power_state.pwrStateResidencyTicks::UNDEFINED 20805141497532                       # Cumulative time (in ticks) in various power states (Tick)
system.realview.vio0.power_state.pwrStateResidencyTicks::UNDEFINED 20805141497532                       # Cumulative time (in ticks) in various power states (Tick)
system.realview.vio1.power_state.pwrStateResidencyTicks::UNDEFINED 20805141497532                       # Cumulative time (in ticks) in various power states (Tick)
system.realview.vram.power_state.pwrStateResidencyTicks::UNDEFINED 20805141497532                       # Cumulative time (in ticks) in various power states (Tick)
system.realview.watchdog.power_state.pwrStateResidencyTicks::UNDEFINED 20805141497532                       # Cumulative time (in ticks) in various power states (Tick)
system.tol2bus.transDist::ReadReq              231526                       # Transaction distribution (Count)
system.tol2bus.transDist::ReadResp           14312606                       # Transaction distribution (Count)
system.tol2bus.transDist::WriteReq              59250                       # Transaction distribution (Count)
system.tol2bus.transDist::WriteResp             59250                       # Transaction distribution (Count)
system.tol2bus.transDist::WritebackDirty      4091866                       # Transaction distribution (Count)
system.tol2bus.transDist::WritebackClean      9449314                       # Transaction distribution (Count)
system.tol2bus.transDist::WriteClean             4216                       # Transaction distribution (Count)
system.tol2bus.transDist::CleanEvict          2260844                       # Transaction distribution (Count)
system.tol2bus.transDist::UpgradeReq           106823                       # Transaction distribution (Count)
system.tol2bus.transDist::SCUpgradeReq            185                       # Transaction distribution (Count)
system.tol2bus.transDist::UpgradeResp          107008                       # Transaction distribution (Count)
system.tol2bus.transDist::ReadExReq           1525046                       # Transaction distribution (Count)
system.tol2bus.transDist::ReadExResp          1525046                       # Transaction distribution (Count)
system.tol2bus.transDist::ReadCleanReq        9450385                       # Transaction distribution (Count)
system.tol2bus.transDist::ReadSharedReq       4630695                       # Transaction distribution (Count)
system.tol2bus.transDist::CleanSharedReq        97028                       # Transaction distribution (Count)
system.tol2bus.transDist::CleanSharedResp        97028                       # Transaction distribution (Count)
system.tol2bus.transDist::CleanInvalidReq        10457                       # Transaction distribution (Count)
system.tol2bus.transDist::CleanInvalidResp        10457                       # Transaction distribution (Count)
system.tol2bus.transDist::InvalidateReq        431375                       # Transaction distribution (Count)
system.tol2bus.transDist::InvalidateResp       431375                       # Transaction distribution (Count)
system.tol2bus.pktCount_system.cpu0.icache.mem_side_port::system.l2.cpu_side_port     10719320                       # Packet count per connected requestor and responder (Count)
system.tol2bus.pktCount_system.cpu0.dcache.mem_side_port::system.l2.cpu_side_port      5789517                       # Packet count per connected requestor and responder (Count)
system.tol2bus.pktCount_system.cpu0.mmu.itb_walker.port::system.l2.cpu_side_port        14382                       # Packet count per connected requestor and responder (Count)
system.tol2bus.pktCount_system.cpu0.mmu.dtb_walker.port::system.l2.cpu_side_port        18240                       # Packet count per connected requestor and responder (Count)
system.tol2bus.pktCount_system.cpu1.icache.mem_side_port::system.l2.cpu_side_port      7072891                       # Packet count per connected requestor and responder (Count)
system.tol2bus.pktCount_system.cpu1.dcache.mem_side_port::system.l2.cpu_side_port      3283232                       # Packet count per connected requestor and responder (Count)
system.tol2bus.pktCount_system.cpu1.mmu.itb_walker.port::system.l2.cpu_side_port         8598                       # Packet count per connected requestor and responder (Count)
system.tol2bus.pktCount_system.cpu1.mmu.dtb_walker.port::system.l2.cpu_side_port        10140                       # Packet count per connected requestor and responder (Count)
system.tol2bus.pktCount_system.cpu2.icache.mem_side_port::system.l2.cpu_side_port      5065632                       # Packet count per connected requestor and responder (Count)
system.tol2bus.pktCount_system.cpu2.dcache.mem_side_port::system.l2.cpu_side_port      8607028                       # Packet count per connected requestor and responder (Count)
system.tol2bus.pktCount_system.cpu2.mmu.itb_walker.port::system.l2.cpu_side_port         6238                       # Packet count per connected requestor and responder (Count)
system.tol2bus.pktCount_system.cpu2.mmu.dtb_walker.port::system.l2.cpu_side_port         6068                       # Packet count per connected requestor and responder (Count)
system.tol2bus.pktCount_system.cpu3.icache.mem_side_port::system.l2.cpu_side_port      5620943                       # Packet count per connected requestor and responder (Count)
system.tol2bus.pktCount_system.cpu3.dcache.mem_side_port::system.l2.cpu_side_port      2646215                       # Packet count per connected requestor and responder (Count)
system.tol2bus.pktCount_system.cpu3.mmu.itb_walker.port::system.l2.cpu_side_port        11736                       # Packet count per connected requestor and responder (Count)
system.tol2bus.pktCount_system.cpu3.mmu.dtb_walker.port::system.l2.cpu_side_port        11600                       # Packet count per connected requestor and responder (Count)
system.tol2bus.pktCount::total               48891780                       # Packet count per connected requestor and responder (Count)
system.tol2bus.pktSize_system.cpu0.icache.mem_side_port::system.l2.cpu_side_port    452172732                       # Cumulative packet size per connected requestor and responder (Byte)
system.tol2bus.pktSize_system.cpu0.dcache.mem_side_port::system.l2.cpu_side_port    186380312                       # Cumulative packet size per connected requestor and responder (Byte)
system.tol2bus.pktSize_system.cpu0.mmu.itb_walker.port::system.l2.cpu_side_port        57528                       # Cumulative packet size per connected requestor and responder (Byte)
system.tol2bus.pktSize_system.cpu0.mmu.dtb_walker.port::system.l2.cpu_side_port        72960                       # Cumulative packet size per connected requestor and responder (Byte)
system.tol2bus.pktSize_system.cpu1.icache.mem_side_port::system.l2.cpu_side_port    301753624                       # Cumulative packet size per connected requestor and responder (Byte)
system.tol2bus.pktSize_system.cpu1.dcache.mem_side_port::system.l2.cpu_side_port     96038238                       # Cumulative packet size per connected requestor and responder (Byte)
system.tol2bus.pktSize_system.cpu1.mmu.itb_walker.port::system.l2.cpu_side_port        34392                       # Cumulative packet size per connected requestor and responder (Byte)
system.tol2bus.pktSize_system.cpu1.mmu.dtb_walker.port::system.l2.cpu_side_port        40560                       # Cumulative packet size per connected requestor and responder (Byte)
system.tol2bus.pktSize_system.cpu2.icache.mem_side_port::system.l2.cpu_side_port    216109760                       # Cumulative packet size per connected requestor and responder (Byte)
system.tol2bus.pktSize_system.cpu2.dcache.mem_side_port::system.l2.cpu_side_port    294210687                       # Cumulative packet size per connected requestor and responder (Byte)
system.tol2bus.pktSize_system.cpu2.mmu.itb_walker.port::system.l2.cpu_side_port        24952                       # Cumulative packet size per connected requestor and responder (Byte)
system.tol2bus.pktSize_system.cpu2.mmu.dtb_walker.port::system.l2.cpu_side_port        24272                       # Cumulative packet size per connected requestor and responder (Byte)
system.tol2bus.pktSize_system.cpu3.icache.mem_side_port::system.l2.cpu_side_port    239802024                       # Cumulative packet size per connected requestor and responder (Byte)
system.tol2bus.pktSize_system.cpu3.dcache.mem_side_port::system.l2.cpu_side_port     80152668                       # Cumulative packet size per connected requestor and responder (Byte)
system.tol2bus.pktSize_system.cpu3.mmu.itb_walker.port::system.l2.cpu_side_port        46944                       # Cumulative packet size per connected requestor and responder (Byte)
system.tol2bus.pktSize_system.cpu3.mmu.dtb_walker.port::system.l2.cpu_side_port        46400                       # Cumulative packet size per connected requestor and responder (Byte)
system.tol2bus.pktSize::total              1866968053                       # Cumulative packet size per connected requestor and responder (Byte)
system.tol2bus.snoops                         1455098                       # Total snoops (Count)
system.tol2bus.snoopTraffic                  56204736                       # Total snoop traffic (Byte)
system.tol2bus.snoopFanout::samples          17997290                       # Request fanout histogram (Count)
system.tol2bus.snoopFanout::mean             0.552017                       # Request fanout histogram (Count)
system.tol2bus.snoopFanout::stdev            1.038921                       # Request fanout histogram (Count)
system.tol2bus.snoopFanout::underflows              0      0.00%      0.00% # Request fanout histogram (Count)
system.tol2bus.snoopFanout::0                13398619     74.45%     74.45% # Request fanout histogram (Count)
system.tol2bus.snoopFanout::1                 1413545      7.85%     82.30% # Request fanout histogram (Count)
system.tol2bus.snoopFanout::2                 1034373      5.75%     88.05% # Request fanout histogram (Count)
system.tol2bus.snoopFanout::3                 2150514     11.95%    100.00% # Request fanout histogram (Count)
system.tol2bus.snoopFanout::4                     231      0.00%    100.00% # Request fanout histogram (Count)
system.tol2bus.snoopFanout::5                       1      0.00%    100.00% # Request fanout histogram (Count)
system.tol2bus.snoopFanout::6                       4      0.00%    100.00% # Request fanout histogram (Count)
system.tol2bus.snoopFanout::7                       3      0.00%    100.00% # Request fanout histogram (Count)
system.tol2bus.snoopFanout::8                       0      0.00%    100.00% # Request fanout histogram (Count)
system.tol2bus.snoopFanout::overflows               0      0.00%    100.00% # Request fanout histogram (Count)
system.tol2bus.snoopFanout::min_value               0                       # Request fanout histogram (Count)
system.tol2bus.snoopFanout::max_value               7                       # Request fanout histogram (Count)
system.tol2bus.snoopFanout::total            17997290                       # Request fanout histogram (Count)
system.tol2bus.power_state.pwrStateResidencyTicks::UNDEFINED 20805141497532                       # Cumulative time (in ticks) in various power states (Tick)
system.tol2bus.snoop_filter.totRequests      32099228                       # Total number of requests made to the snoop filter. (Count)
system.tol2bus.snoop_filter.hitSingleRequests     12952826                       # Number of requests hitting in the snoop filter with a single holder of the requested data. (Count)
system.tol2bus.snoop_filter.hitMultiRequests      7405755                       # Number of requests hitting in the snoop filter with multiple (>1) holders of the requested data. (Count)
system.tol2bus.snoop_filter.totSnoops           53263                       # Total number of snoops made to the snoop filter. (Count)
system.tol2bus.snoop_filter.hitSingleSnoops        42176                       # Number of snoops hitting in the snoop filter with a single holder of the requested data. (Count)
system.tol2bus.snoop_filter.hitMultiSnoops        11087                       # Number of snoops hitting in the snoop filter with multiple (>1) holders of the requested data. (Count)
system.voltage_domain.voltage                       1                       # Voltage in Volts (Volt)
system.workload.inst.arm                            0                       # number of arm instructions executed (Count)
system.workload.inst.quiesce                   533619                       # number of quiesce instructions executed (Count)

---------- End Simulation Statistics   ----------
