
---------- Begin Simulation Statistics ----------
sim_seconds                               2420.308666                       # Number of seconds simulated
sim_ticks                                2420308666254500                       # Number of ticks simulated
final_tick                               2420308666254500                       # Number of ticks from beginning of simulation (restored from checkpoints and never reset)
sim_freq                                 1000000000000                       # Frequency of simulated ticks
host_seconds                                 19821.98                       # Real time elapsed on the host
host_tick_rate                           122102258792                       # Simulator tick rate (ticks/s)
host_mem_usage                                5239508                       # Number of bytes of host memory used
sim_insts                                  2173586170                       # Number of instructions simulated
sim_ops                                    5419977219                       # Number of ops (including micro ops) simulated
host_inst_rate                                 109655                       # Simulator instruction rate (inst/s)
host_op_rate                                   273433                       # Simulator op (including micro ops) rate (op/s)
system.apicbridge.power_state.pwrStateResidencyTicks::UNDEFINED 2420308666254500                       # Cumulative time (in ticks) in various power states
system.bridge.power_state.pwrStateResidencyTicks::UNDEFINED 2420308666254500                       # Cumulative time (in ticks) in various power states
system.clk_domain.clock                          1000                       # Clock period in ticks
system.cpu.numCycles                       8802861504                       # Number of cpu cycles simulated
system.cpu.numWorkItemsStarted                      0                       # Number of work items this cpu started
system.cpu.numWorkItemsCompleted                    0                       # Number of work items this cpu completed
system.cpu.instsAdded                      5608787055                       # Number of instructions added to the IQ (excludes non-spec)
system.cpu.nonSpecInstsAdded                 23740353                       # Number of non-speculative instructions added to the IQ
system.cpu.instsIssued                     5586039569                       # Number of instructions issued
system.cpu.squashedInstsIssued                2413877                       # Number of squashed instructions issued
system.cpu.squashedInstsExamined            212550159                       # Number of squashed instructions iterated over during squash; mainly for profiling
system.cpu.squashedOperandsExamined         182134729                       # Number of squashed operands that are examined and possibly removed from graph
system.cpu.squashedNonSpecRemoved             7726137                       # Number of squashed non-spec instructions that were removed
system.cpu.numIssuedDist::samples          4163851102                       # Number of insts issued each cycle
system.cpu.numIssuedDist::mean               1.341556                       # Number of insts issued each cycle
system.cpu.numIssuedDist::stdev              1.995950                       # Number of insts issued each cycle
system.cpu.numIssuedDist::underflows                0      0.00%      0.00% # Number of insts issued each cycle
system.cpu.numIssuedDist::0                2443604510     58.69%     58.69% # Number of insts issued each cycle
system.cpu.numIssuedDist::1                 424133709     10.19%     68.87% # Number of insts issued each cycle
system.cpu.numIssuedDist::2                 275830332      6.62%     75.50% # Number of insts issued each cycle
system.cpu.numIssuedDist::3                 327896754      7.87%     83.37% # Number of insts issued each cycle
system.cpu.numIssuedDist::4                 166880378      4.01%     87.38% # Number of insts issued each cycle
system.cpu.numIssuedDist::5                 257427660      6.18%     93.56% # Number of insts issued each cycle
system.cpu.numIssuedDist::6                 215814400      5.18%     98.74% # Number of insts issued each cycle
system.cpu.numIssuedDist::7                  41098150      0.99%     99.73% # Number of insts issued each cycle
system.cpu.numIssuedDist::8                  11165209      0.27%    100.00% # Number of insts issued each cycle
system.cpu.numIssuedDist::overflows                 0      0.00%    100.00% # Number of insts issued each cycle
system.cpu.numIssuedDist::min_value                 0                       # Number of insts issued each cycle
system.cpu.numIssuedDist::max_value                 8                       # Number of insts issued each cycle
system.cpu.numIssuedDist::total            4163851102                       # Number of insts issued each cycle
system.cpu.statFuBusy::No_OpClass                   0      0.00%      0.00% # attempts to use FU when none available
system.cpu.statFuBusy::IntAlu               127155176     93.19%     93.19% # attempts to use FU when none available
system.cpu.statFuBusy::IntMult                      0      0.00%     93.19% # attempts to use FU when none available
system.cpu.statFuBusy::IntDiv                       0      0.00%     93.19% # attempts to use FU when none available
system.cpu.statFuBusy::FloatAdd                     0      0.00%     93.19% # attempts to use FU when none available
system.cpu.statFuBusy::FloatCmp                     0      0.00%     93.19% # attempts to use FU when none available
system.cpu.statFuBusy::FloatCvt                    50      0.00%     93.19% # attempts to use FU when none available
system.cpu.statFuBusy::FloatMult                    0      0.00%     93.19% # attempts to use FU when none available
system.cpu.statFuBusy::FloatMultAcc                 0      0.00%     93.19% # attempts to use FU when none available
system.cpu.statFuBusy::FloatDiv                     0      0.00%     93.19% # attempts to use FU when none available
system.cpu.statFuBusy::FloatMisc                    0      0.00%     93.19% # attempts to use FU when none available
system.cpu.statFuBusy::FloatSqrt                    0      0.00%     93.19% # attempts to use FU when none available
system.cpu.statFuBusy::SimdAdd                      7      0.00%     93.19% # attempts to use FU when none available
system.cpu.statFuBusy::SimdAddAcc                   0      0.00%     93.19% # attempts to use FU when none available
system.cpu.statFuBusy::SimdAlu                   7558      0.01%     93.20% # attempts to use FU when none available
system.cpu.statFuBusy::SimdCmp                     50      0.00%     93.20% # attempts to use FU when none available
system.cpu.statFuBusy::SimdCvt                   3964      0.00%     93.20% # attempts to use FU when none available
system.cpu.statFuBusy::SimdMisc                   327      0.00%     93.20% # attempts to use FU when none available
system.cpu.statFuBusy::SimdMult                     0      0.00%     93.20% # attempts to use FU when none available
system.cpu.statFuBusy::SimdMultAcc                  0      0.00%     93.20% # attempts to use FU when none available
system.cpu.statFuBusy::SimdShift                  215      0.00%     93.20% # attempts to use FU when none available
system.cpu.statFuBusy::SimdShiftAcc                 0      0.00%     93.20% # attempts to use FU when none available
system.cpu.statFuBusy::SimdDiv                      0      0.00%     93.20% # attempts to use FU when none available
system.cpu.statFuBusy::SimdSqrt                     0      0.00%     93.20% # attempts to use FU when none available
system.cpu.statFuBusy::SimdFloatAdd                 0      0.00%     93.20% # attempts to use FU when none available
system.cpu.statFuBusy::SimdFloatAlu                 0      0.00%     93.20% # attempts to use FU when none available
system.cpu.statFuBusy::SimdFloatCmp                 0      0.00%     93.20% # attempts to use FU when none available
system.cpu.statFuBusy::SimdFloatCvt                 0      0.00%     93.20% # attempts to use FU when none available
system.cpu.statFuBusy::SimdFloatDiv                 0      0.00%     93.20% # attempts to use FU when none available
system.cpu.statFuBusy::SimdFloatMisc                0      0.00%     93.20% # attempts to use FU when none available
system.cpu.statFuBusy::SimdFloatMult                0      0.00%     93.20% # attempts to use FU when none available
system.cpu.statFuBusy::SimdFloatMultAcc             0      0.00%     93.20% # attempts to use FU when none available
system.cpu.statFuBusy::SimdFloatSqrt                0      0.00%     93.20% # attempts to use FU when none available
system.cpu.statFuBusy::SimdReduceAdd                0      0.00%     93.20% # attempts to use FU when none available
system.cpu.statFuBusy::SimdReduceAlu                0      0.00%     93.20% # attempts to use FU when none available
system.cpu.statFuBusy::SimdReduceCmp                0      0.00%     93.20% # attempts to use FU when none available
system.cpu.statFuBusy::SimdFloatReduceAdd            0      0.00%     93.20% # attempts to use FU when none available
system.cpu.statFuBusy::SimdFloatReduceCmp            0      0.00%     93.20% # attempts to use FU when none available
system.cpu.statFuBusy::SimdAes                      0      0.00%     93.20% # attempts to use FU when none available
system.cpu.statFuBusy::SimdAesMix                   0      0.00%     93.20% # attempts to use FU when none available
system.cpu.statFuBusy::SimdSha1Hash                 0      0.00%     93.20% # attempts to use FU when none available
system.cpu.statFuBusy::SimdSha1Hash2                0      0.00%     93.20% # attempts to use FU when none available
system.cpu.statFuBusy::SimdSha256Hash               0      0.00%     93.20% # attempts to use FU when none available
system.cpu.statFuBusy::SimdSha256Hash2              0      0.00%     93.20% # attempts to use FU when none available
system.cpu.statFuBusy::SimdShaSigma2                0      0.00%     93.20% # attempts to use FU when none available
system.cpu.statFuBusy::SimdShaSigma3                0      0.00%     93.20% # attempts to use FU when none available
system.cpu.statFuBusy::SimdPredAlu                  0      0.00%     93.20% # attempts to use FU when none available
system.cpu.statFuBusy::MemRead                6613598      4.85%     98.05% # attempts to use FU when none available
system.cpu.statFuBusy::MemWrite               2658395      1.95%    100.00% # attempts to use FU when none available
system.cpu.statFuBusy::FloatMemRead              3852      0.00%    100.00% # attempts to use FU when none available
system.cpu.statFuBusy::FloatMemWrite             1928      0.00%    100.00% # attempts to use FU when none available
system.cpu.statFuBusy::IprAccess                    0      0.00%    100.00% # attempts to use FU when none available
system.cpu.statFuBusy::InstPrefetch                 0      0.00%    100.00% # attempts to use FU when none available
system.cpu.statIssuedInstType_0::No_OpClass    122738677      2.20%      2.20% # Type of FU issued
system.cpu.statIssuedInstType_0::IntAlu    4261604741     76.29%     78.49% # Type of FU issued
system.cpu.statIssuedInstType_0::IntMult      2771474      0.05%     78.54% # Type of FU issued
system.cpu.statIssuedInstType_0::IntDiv        946410      0.02%     78.55% # Type of FU issued
system.cpu.statIssuedInstType_0::FloatAdd        14743      0.00%     78.55% # Type of FU issued
system.cpu.statIssuedInstType_0::FloatCmp            0      0.00%     78.55% # Type of FU issued
system.cpu.statIssuedInstType_0::FloatCvt        15778      0.00%     78.55% # Type of FU issued
system.cpu.statIssuedInstType_0::FloatMult            0      0.00%     78.55% # Type of FU issued
system.cpu.statIssuedInstType_0::FloatMultAcc            0      0.00%     78.55% # Type of FU issued
system.cpu.statIssuedInstType_0::FloatDiv            0      0.00%     78.55% # Type of FU issued
system.cpu.statIssuedInstType_0::FloatMisc            0      0.00%     78.55% # Type of FU issued
system.cpu.statIssuedInstType_0::FloatSqrt            0      0.00%     78.55% # Type of FU issued
system.cpu.statIssuedInstType_0::SimdAdd        19110      0.00%     78.55% # Type of FU issued
system.cpu.statIssuedInstType_0::SimdAddAcc            0      0.00%     78.55% # Type of FU issued
system.cpu.statIssuedInstType_0::SimdAlu       103857      0.00%     78.56% # Type of FU issued
system.cpu.statIssuedInstType_0::SimdCmp          532      0.00%     78.56% # Type of FU issued
system.cpu.statIssuedInstType_0::SimdCvt        96650      0.00%     78.56% # Type of FU issued
system.cpu.statIssuedInstType_0::SimdMisc        59701      0.00%     78.56% # Type of FU issued
system.cpu.statIssuedInstType_0::SimdMult            0      0.00%     78.56% # Type of FU issued
system.cpu.statIssuedInstType_0::SimdMultAcc            0      0.00%     78.56% # Type of FU issued
system.cpu.statIssuedInstType_0::SimdShift        17337      0.00%     78.56% # Type of FU issued
system.cpu.statIssuedInstType_0::SimdShiftAcc            0      0.00%     78.56% # Type of FU issued
system.cpu.statIssuedInstType_0::SimdDiv            0      0.00%     78.56% # Type of FU issued
system.cpu.statIssuedInstType_0::SimdSqrt            0      0.00%     78.56% # Type of FU issued
system.cpu.statIssuedInstType_0::SimdFloatAdd            0      0.00%     78.56% # Type of FU issued
system.cpu.statIssuedInstType_0::SimdFloatAlu            0      0.00%     78.56% # Type of FU issued
system.cpu.statIssuedInstType_0::SimdFloatCmp            0      0.00%     78.56% # Type of FU issued
system.cpu.statIssuedInstType_0::SimdFloatCvt            0      0.00%     78.56% # Type of FU issued
system.cpu.statIssuedInstType_0::SimdFloatDiv            0      0.00%     78.56% # Type of FU issued
system.cpu.statIssuedInstType_0::SimdFloatMisc            0      0.00%     78.56% # Type of FU issued
system.cpu.statIssuedInstType_0::SimdFloatMult            0      0.00%     78.56% # Type of FU issued
system.cpu.statIssuedInstType_0::SimdFloatMultAcc            0      0.00%     78.56% # Type of FU issued
system.cpu.statIssuedInstType_0::SimdFloatSqrt            0      0.00%     78.56% # Type of FU issued
system.cpu.statIssuedInstType_0::SimdReduceAdd            0      0.00%     78.56% # Type of FU issued
system.cpu.statIssuedInstType_0::SimdReduceAlu            0      0.00%     78.56% # Type of FU issued
system.cpu.statIssuedInstType_0::SimdReduceCmp            0      0.00%     78.56% # Type of FU issued
system.cpu.statIssuedInstType_0::SimdFloatReduceAdd            0      0.00%     78.56% # Type of FU issued
system.cpu.statIssuedInstType_0::SimdFloatReduceCmp            0      0.00%     78.56% # Type of FU issued
system.cpu.statIssuedInstType_0::SimdAes            0      0.00%     78.56% # Type of FU issued
system.cpu.statIssuedInstType_0::SimdAesMix            0      0.00%     78.56% # Type of FU issued
system.cpu.statIssuedInstType_0::SimdSha1Hash            0      0.00%     78.56% # Type of FU issued
system.cpu.statIssuedInstType_0::SimdSha1Hash2            0      0.00%     78.56% # Type of FU issued
system.cpu.statIssuedInstType_0::SimdSha256Hash            0      0.00%     78.56% # Type of FU issued
system.cpu.statIssuedInstType_0::SimdSha256Hash2            0      0.00%     78.56% # Type of FU issued
system.cpu.statIssuedInstType_0::SimdShaSigma2            0      0.00%     78.56% # Type of FU issued
system.cpu.statIssuedInstType_0::SimdShaSigma3            0      0.00%     78.56% # Type of FU issued
system.cpu.statIssuedInstType_0::SimdPredAlu            0      0.00%     78.56% # Type of FU issued
system.cpu.statIssuedInstType_0::MemRead    715663130     12.81%     91.37% # Type of FU issued
system.cpu.statIssuedInstType_0::MemWrite    481814372      8.63%    100.00% # Type of FU issued
system.cpu.statIssuedInstType_0::FloatMemRead       123745      0.00%    100.00% # Type of FU issued
system.cpu.statIssuedInstType_0::FloatMemWrite        49312      0.00%    100.00% # Type of FU issued
system.cpu.statIssuedInstType_0::IprAccess            0      0.00%    100.00% # Type of FU issued
system.cpu.statIssuedInstType_0::InstPrefetch            0      0.00%    100.00% # Type of FU issued
system.cpu.statIssuedInstType_0::total     5586039569                       # Type of FU issued
system.cpu.issueRate                         0.634571                       # Inst issue rate
system.cpu.fuBusy                           136445120                       # FU busy when requested
system.cpu.fuBusyRate                        0.024426                       # FU busy rate (busy events/executed inst)
system.cpu.intInstQueueReads              15473690401                       # Number of integer instruction queue reads
system.cpu.intInstQueueWrites              5844425385                       # Number of integer instruction queue writes
system.cpu.intInstQueueWakeupAccesses      5558660993                       # Number of integer instruction queue wakeup accesses
system.cpu.fpInstQueueReads                   1098830                       # Number of floating instruction queue reads
system.cpu.fpInstQueueWrites                   822673                       # Number of floating instruction queue writes
system.cpu.fpInstQueueWakeupAccesses           506727                       # Number of floating instruction queue wakeup accesses
system.cpu.vecInstQueueReads                        0                       # Number of vector instruction queue reads
system.cpu.vecInstQueueWrites                       0                       # Number of vector instruction queue writes
system.cpu.vecInstQueueWakeupAccesses               0                       # Number of vector instruction queue wakeup accesses
system.cpu.intAluAccesses                  5599191455                       # Number of integer alu accesses
system.cpu.fpAluAccesses                       554557                       # Number of floating point alu accesses
system.cpu.vecAluAccesses                           0                       # Number of vector alu accesses
system.cpu.idleCycles                               0                       # Number of cycles IEW is idle
system.cpu.squashCycles                      17803998                       # Number of cycles IEW is squashing
system.cpu.blockCycles                       55559820                       # Number of cycles IEW is blocking
system.cpu.unblockCycles                     25012981                       # Number of cycles IEW is unblocking
system.cpu.dispatchedInsts                 5632527408                       # Number of instructions dispatched to IQ
system.cpu.dispSquashedInsts                  8454971                       # Number of squashed instructions skipped by dispatch
system.cpu.dispLoadInsts                    718534246                       # Number of dispatched load instructions
system.cpu.dispStoreInsts                   485453685                       # Number of dispatched store instructions
system.cpu.dispNonSpecInsts                  17727598                       # Number of dispatched non-speculative instructions
system.cpu.iqFullEvents                        251757                       # Number of times the IQ has become full, causing a stall
system.cpu.lsqFullEvents                     24563868                       # Number of times the LSQ has become full, causing a stall
system.cpu.memOrderViolationEvents             171656                       # Number of memory order violations
system.cpu.predictedTakenIncorrect            8808652                       # Number of branches that were predicted taken incorrectly
system.cpu.predictedNotTakenIncorrect         8714136                       # Number of branches that were predicted not taken incorrectly
system.cpu.branchMispredicts                 17522788                       # Number of branch mispredicts detected at execute
system.cpu.numInsts                        5567611415                       # Number of executed instructions
system.cpu.numLoadInsts                     709152280                       # Number of load instructions executed
system.cpu.numSquashedInsts                  15603412                       # Number of squashed instructions skipped in execute
system.cpu.numSwp                                   0                       # Number of swp insts executed
system.cpu.numNop                                   0                       # Number of nop insts executed
system.cpu.numRefs                         1189344523                       # Number of memory reference insts executed
system.cpu.numBranches                      699021866                       # Number of branches executed
system.cpu.numStoreInsts                    480192243                       # Number of stores executed
system.cpu.numRate                           0.632477                       # Inst execution rate
system.cpu.instsToCommit                   5561905544                       # Cumulative count of insts sent to commit
system.cpu.writebackCount                  5559167720                       # Cumulative count of insts written-back
system.cpu.producerInst                    3615924818                       # Number of instructions producing a value
system.cpu.consumerInst                    5237097344                       # Number of instructions consuming a value
system.cpu.wbRate                            0.631518                       # Insts written-back per cycle
system.cpu.wbFanout                          0.690444                       # Average fanout of values written-back
system.cpu.timesIdled                        59377409                       # Number of times that the entire CPU went into an idle state and unscheduled itself
system.cpu.idleCycles                      4639010402                       # Total number of cycles that the CPU has spent unscheduled due to idling
system.cpu.quiesceCycles                 4831814471006                       # Total number of cycles that CPU has spent quiesced or waiting for an interrupt
system.cpu.committedInsts                  2173586170                       # Number of Instructions Simulated
system.cpu.committedOps                    5419977219                       # Number of Ops (including micro ops) Simulated
system.cpu.cpi                               4.049925                       # CPI: Cycles Per Instruction
system.cpu.totalCpi                          4.049925                       # CPI: Total CPI of All Threads
system.cpu.ipc                               0.246918                       # IPC: Instructions Per Cycle
system.cpu.totalIpc                          0.246918                       # IPC: Total IPC of All Threads
system.cpu.intRegfileReads                 7450018703                       # Number of integer regfile reads
system.cpu.intRegfileWrites                4187496943                       # Number of integer regfile writes
system.cpu.fpRegfileReads                      795215                       # Number of floating regfile reads
system.cpu.fpRegfileWrites                     407129                       # Number of floating regfile writes
system.cpu.ccRegfileReads                  2637842693                       # number of cc regfile reads
system.cpu.ccRegfileWrites                 1249686345                       # number of cc regfile writes
system.cpu.miscRegfileReads                2622673166                       # number of misc regfile reads
system.cpu.miscRegfileWrites                 18973177                       # number of misc regfile writes
system.cpu.MemDepUnit__0.insertedLoads      718534246                       # Number of loads inserted to the mem dependence unit.
system.cpu.MemDepUnit__0.insertedStores     485453685                       # Number of stores inserted to the mem dependence unit.
system.cpu.MemDepUnit__0.conflictingLoads     38260851                       # Number of conflicting loads.
system.cpu.MemDepUnit__0.conflictingStores     32262092                       # Number of conflicting stores.
system.cpu.MemDepUnit__1.insertedLoads              0                       # Number of loads inserted to the mem dependence unit.
system.cpu.MemDepUnit__1.insertedStores             0                       # Number of stores inserted to the mem dependence unit.
system.cpu.MemDepUnit__1.conflictingLoads            0                       # Number of conflicting loads.
system.cpu.MemDepUnit__1.conflictingStores            0                       # Number of conflicting stores.
system.cpu.MemDepUnit__2.insertedLoads              0                       # Number of loads inserted to the mem dependence unit.
system.cpu.MemDepUnit__2.insertedStores             0                       # Number of stores inserted to the mem dependence unit.
system.cpu.MemDepUnit__2.conflictingLoads            0                       # Number of conflicting loads.
system.cpu.MemDepUnit__2.conflictingStores            0                       # Number of conflicting stores.
system.cpu.MemDepUnit__3.insertedLoads              0                       # Number of loads inserted to the mem dependence unit.
system.cpu.MemDepUnit__3.insertedStores             0                       # Number of stores inserted to the mem dependence unit.
system.cpu.MemDepUnit__3.conflictingLoads            0                       # Number of conflicting loads.
system.cpu.MemDepUnit__3.conflictingStores            0                       # Number of conflicting stores.
system.cpu.branchPred.lookups               787689999                       # Number of BP lookups
system.cpu.branchPred.condPredicted         453168085                       # Number of conditional branches predicted
system.cpu.branchPred.condIncorrect          25411682                       # Number of conditional branches incorrect
system.cpu.branchPred.BTBLookups            477050050                       # Number of BTB lookups
system.cpu.branchPred.BTBHits               465631743                       # Number of BTB hits
system.cpu.branchPred.BTBHitPct             97.606476                       # BTB Hit Percentage
system.cpu.branchPred.RASUsed                69322158                       # Number of times the RAS was used to get a target.
system.cpu.branchPred.RASIncorrect            4534762                       # Number of incorrect RAS predictions.
system.cpu.branchPred.indirectLookups         9944638                       # Number of indirect predictor lookups.
system.cpu.branchPred.indirectHits            7362316                       # Number of indirect target hits.
system.cpu.branchPred.indirectMisses          2582322                       # Number of indirect misses.
system.cpu.branchPred.indirectMispredicted      1297753                       # Number of mispredicted indirect branches.
system.cpu.commit.commitSquashedInsts       198747579                       # The number of squashed insts skipped by commit
system.cpu.commit.commitNonSpecStalls        16014216                       # The number of times commit has been forced to stall to communicate backwards
system.cpu.commit.branchMispredicts          15781433                       # The number of times a branch was mispredicted
system.cpu.commit.numCommittedDist::samples   4125891678                       # Number of insts commited each cycle
system.cpu.commit.numCommittedDist::mean     1.313650                       # Number of insts commited each cycle
system.cpu.commit.numCommittedDist::stdev     2.219225                       # Number of insts commited each cycle
system.cpu.commit.numCommittedDist::underflows            0      0.00%      0.00% # Number of insts commited each cycle
system.cpu.commit.numCommittedDist::0      2522823643     61.15%     61.15% # Number of insts commited each cycle
system.cpu.commit.numCommittedDist::1       429239869     10.40%     71.55% # Number of insts commited each cycle
system.cpu.commit.numCommittedDist::2       228063293      5.53%     77.08% # Number of insts commited each cycle
system.cpu.commit.numCommittedDist::3       487287970     11.81%     88.89% # Number of insts commited each cycle
system.cpu.commit.numCommittedDist::4        66779541      1.62%     90.51% # Number of insts commited each cycle
system.cpu.commit.numCommittedDist::5        63232720      1.53%     92.04% # Number of insts commited each cycle
system.cpu.commit.numCommittedDist::6        57731252      1.40%     93.44% # Number of insts commited each cycle
system.cpu.commit.numCommittedDist::7        22789542      0.55%     93.99% # Number of insts commited each cycle
system.cpu.commit.numCommittedDist::8       247943848      6.01%    100.00% # Number of insts commited each cycle
system.cpu.commit.numCommittedDist::overflows            0      0.00%    100.00% # Number of insts commited each cycle
system.cpu.commit.numCommittedDist::min_value            0                       # Number of insts commited each cycle
system.cpu.commit.numCommittedDist::max_value            8                       # Number of insts commited each cycle
system.cpu.commit.numCommittedDist::total   4125891678                       # Number of insts commited each cycle
system.cpu.commit.instsCommitted           2173586170                       # Number of instructions committed
system.cpu.commit.opsCommitted             5419977219                       # Number of ops (including micro ops) committed
system.cpu.commit.memRefs                  1154505315                       # Number of memory references committed
system.cpu.commit.loads                     689708850                       # Number of loads committed
system.cpu.commit.amos                              0                       # Number of atomic instructions committed
system.cpu.commit.membars                      221712                       # Number of memory barriers committed
system.cpu.commit.branches                  686533263                       # Number of branches committed
system.cpu.commit.vector                            0                       # Number of committed Vector instructions.
system.cpu.commit.floating                     394333                       # Number of committed floating point instructions.
system.cpu.commit.integer                  5133346762                       # Number of committed integer instructions.
system.cpu.commit.functionCalls              67538250                       # Number of function calls committed.
system.cpu.commit.committedInstType_0::No_OpClass    115925029      2.14%      2.14% # Class of committed instruction
system.cpu.commit.committedInstType_0::IntAlu   4145613378     76.49%     78.63% # Class of committed instruction
system.cpu.commit.committedInstType_0::IntMult      2752532      0.05%     78.68% # Class of committed instruction
system.cpu.commit.committedInstType_0::IntDiv       937021      0.02%     78.69% # Class of committed instruction
system.cpu.commit.committedInstType_0::FloatAdd         7091      0.00%     78.69% # Class of committed instruction
system.cpu.commit.committedInstType_0::FloatCmp            0      0.00%     78.69% # Class of committed instruction
system.cpu.commit.committedInstType_0::FloatCvt         8272      0.00%     78.69% # Class of committed instruction
system.cpu.commit.committedInstType_0::FloatMult            0      0.00%     78.69% # Class of committed instruction
system.cpu.commit.committedInstType_0::FloatMultAcc            0      0.00%     78.69% # Class of committed instruction
system.cpu.commit.committedInstType_0::FloatDiv            0      0.00%     78.69% # Class of committed instruction
system.cpu.commit.committedInstType_0::FloatMisc            0      0.00%     78.69% # Class of committed instruction
system.cpu.commit.committedInstType_0::FloatSqrt            0      0.00%     78.69% # Class of committed instruction
system.cpu.commit.committedInstType_0::SimdAdd        14948      0.00%     78.70% # Class of committed instruction
system.cpu.commit.committedInstType_0::SimdAddAcc            0      0.00%     78.70% # Class of committed instruction
system.cpu.commit.committedInstType_0::SimdAlu        77625      0.00%     78.70% # Class of committed instruction
system.cpu.commit.committedInstType_0::SimdCmp          512      0.00%     78.70% # Class of committed instruction
system.cpu.commit.committedInstType_0::SimdCvt        74380      0.00%     78.70% # Class of committed instruction
system.cpu.commit.committedInstType_0::SimdMisc        54181      0.00%     78.70% # Class of committed instruction
system.cpu.commit.committedInstType_0::SimdMult            0      0.00%     78.70% # Class of committed instruction
system.cpu.commit.committedInstType_0::SimdMultAcc            0      0.00%     78.70% # Class of committed instruction
system.cpu.commit.committedInstType_0::SimdShift         6935      0.00%     78.70% # Class of committed instruction
system.cpu.commit.committedInstType_0::SimdShiftAcc            0      0.00%     78.70% # Class of committed instruction
system.cpu.commit.committedInstType_0::SimdDiv            0      0.00%     78.70% # Class of committed instruction
system.cpu.commit.committedInstType_0::SimdSqrt            0      0.00%     78.70% # Class of committed instruction
system.cpu.commit.committedInstType_0::SimdFloatAdd            0      0.00%     78.70% # Class of committed instruction
system.cpu.commit.committedInstType_0::SimdFloatAlu            0      0.00%     78.70% # Class of committed instruction
system.cpu.commit.committedInstType_0::SimdFloatCmp            0      0.00%     78.70% # Class of committed instruction
system.cpu.commit.committedInstType_0::SimdFloatCvt            0      0.00%     78.70% # Class of committed instruction
system.cpu.commit.committedInstType_0::SimdFloatDiv            0      0.00%     78.70% # Class of committed instruction
system.cpu.commit.committedInstType_0::SimdFloatMisc            0      0.00%     78.70% # Class of committed instruction
system.cpu.commit.committedInstType_0::SimdFloatMult            0      0.00%     78.70% # Class of committed instruction
system.cpu.commit.committedInstType_0::SimdFloatMultAcc            0      0.00%     78.70% # Class of committed instruction
system.cpu.commit.committedInstType_0::SimdFloatSqrt            0      0.00%     78.70% # Class of committed instruction
system.cpu.commit.committedInstType_0::SimdReduceAdd            0      0.00%     78.70% # Class of committed instruction
system.cpu.commit.committedInstType_0::SimdReduceAlu            0      0.00%     78.70% # Class of committed instruction
system.cpu.commit.committedInstType_0::SimdReduceCmp            0      0.00%     78.70% # Class of committed instruction
system.cpu.commit.committedInstType_0::SimdFloatReduceAdd            0      0.00%     78.70% # Class of committed instruction
system.cpu.commit.committedInstType_0::SimdFloatReduceCmp            0      0.00%     78.70% # Class of committed instruction
system.cpu.commit.committedInstType_0::SimdAes            0      0.00%     78.70% # Class of committed instruction
system.cpu.commit.committedInstType_0::SimdAesMix            0      0.00%     78.70% # Class of committed instruction
system.cpu.commit.committedInstType_0::SimdSha1Hash            0      0.00%     78.70% # Class of committed instruction
system.cpu.commit.committedInstType_0::SimdSha1Hash2            0      0.00%     78.70% # Class of committed instruction
system.cpu.commit.committedInstType_0::SimdSha256Hash            0      0.00%     78.70% # Class of committed instruction
system.cpu.commit.committedInstType_0::SimdSha256Hash2            0      0.00%     78.70% # Class of committed instruction
system.cpu.commit.committedInstType_0::SimdShaSigma2            0      0.00%     78.70% # Class of committed instruction
system.cpu.commit.committedInstType_0::SimdShaSigma3            0      0.00%     78.70% # Class of committed instruction
system.cpu.commit.committedInstType_0::SimdPredAlu            0      0.00%     78.70% # Class of committed instruction
system.cpu.commit.committedInstType_0::MemRead    689626968     12.72%     91.42% # Class of committed instruction
system.cpu.commit.committedInstType_0::MemWrite    464753795      8.57%    100.00% # Class of committed instruction
system.cpu.commit.committedInstType_0::FloatMemRead        81882      0.00%    100.00% # Class of committed instruction
system.cpu.commit.committedInstType_0::FloatMemWrite        42670      0.00%    100.00% # Class of committed instruction
system.cpu.commit.committedInstType_0::IprAccess            0      0.00%    100.00% # Class of committed instruction
system.cpu.commit.committedInstType_0::InstPrefetch            0      0.00%    100.00% # Class of committed instruction
system.cpu.commit.committedInstType_0::total   5419977219                       # Class of committed instruction
system.cpu.commit.commitEligibleSamples     247943848                       # number cycles where commit BW limit reached
system.cpu.dcache.demand_hits::.cpu.data   1072920423                       # number of demand (read+write) hits
system.cpu.dcache.demand_hits::total       1072920423                       # number of demand (read+write) hits
system.cpu.dcache.overall_hits::.cpu.data   1072967521                       # number of overall hits
system.cpu.dcache.overall_hits::total      1072967521                       # number of overall hits
system.cpu.dcache.demand_misses::.cpu.data      5661385                       # number of demand (read+write) misses
system.cpu.dcache.demand_misses::total        5661385                       # number of demand (read+write) misses
system.cpu.dcache.overall_misses::.cpu.data      6694048                       # number of overall misses
system.cpu.dcache.overall_misses::total       6694048                       # number of overall misses
system.cpu.dcache.demand_miss_latency::.cpu.data 318838837400                       # number of demand (read+write) miss cycles
system.cpu.dcache.demand_miss_latency::total 318838837400                       # number of demand (read+write) miss cycles
system.cpu.dcache.overall_miss_latency::.cpu.data 318838837400                       # number of overall miss cycles
system.cpu.dcache.overall_miss_latency::total 318838837400                       # number of overall miss cycles
system.cpu.dcache.demand_accesses::.cpu.data   1078581808                       # number of demand (read+write) accesses
system.cpu.dcache.demand_accesses::total   1078581808                       # number of demand (read+write) accesses
system.cpu.dcache.overall_accesses::.cpu.data   1079661569                       # number of overall (read+write) accesses
system.cpu.dcache.overall_accesses::total   1079661569                       # number of overall (read+write) accesses
system.cpu.dcache.demand_miss_rate::.cpu.data     0.005249                       # miss rate for demand accesses
system.cpu.dcache.demand_miss_rate::total     0.005249                       # miss rate for demand accesses
system.cpu.dcache.overall_miss_rate::.cpu.data     0.006200                       # miss rate for overall accesses
system.cpu.dcache.overall_miss_rate::total     0.006200                       # miss rate for overall accesses
system.cpu.dcache.demand_avg_miss_latency::.cpu.data 56318.169035                       # average overall miss latency
system.cpu.dcache.demand_avg_miss_latency::total 56318.169035                       # average overall miss latency
system.cpu.dcache.overall_avg_miss_latency::.cpu.data 47630.198857                       # average overall miss latency
system.cpu.dcache.overall_avg_miss_latency::total 47630.198857                       # average overall miss latency
system.cpu.dcache.blocked_cycles::no_mshrs     39734864                       # number of cycles access was blocked
system.cpu.dcache.blocked_cycles::no_targets       146739                       # number of cycles access was blocked
system.cpu.dcache.blocked::no_mshrs           1026764                       # number of cycles access was blocked
system.cpu.dcache.blocked::no_targets            1626                       # number of cycles access was blocked
system.cpu.dcache.avg_blocked_cycles::no_mshrs    38.699121                       # average number of cycles each access was blocked
system.cpu.dcache.avg_blocked_cycles::no_targets    90.245387                       # average number of cycles each access was blocked
system.cpu.dcache.writebacks::.writebacks      4100582                       # number of writebacks
system.cpu.dcache.writebacks::total           4100582                       # number of writebacks
system.cpu.dcache.demand_mshr_hits::.cpu.data      2032068                       # number of demand (read+write) MSHR hits
system.cpu.dcache.demand_mshr_hits::total      2032068                       # number of demand (read+write) MSHR hits
system.cpu.dcache.overall_mshr_hits::.cpu.data      2032068                       # number of overall MSHR hits
system.cpu.dcache.overall_mshr_hits::total      2032068                       # number of overall MSHR hits
system.cpu.dcache.demand_mshr_misses::.cpu.data      3629317                       # number of demand (read+write) MSHR misses
system.cpu.dcache.demand_mshr_misses::total      3629317                       # number of demand (read+write) MSHR misses
system.cpu.dcache.overall_mshr_misses::.cpu.data      4661621                       # number of overall MSHR misses
system.cpu.dcache.overall_mshr_misses::total      4661621                       # number of overall MSHR misses
system.cpu.dcache.overall_mshr_uncacheable_misses::.cpu.data       669908                       # number of overall MSHR uncacheable misses
system.cpu.dcache.overall_mshr_uncacheable_misses::total       669908                       # number of overall MSHR uncacheable misses
system.cpu.dcache.demand_mshr_miss_latency::.cpu.data 216044227402                       # number of demand (read+write) MSHR miss cycles
system.cpu.dcache.demand_mshr_miss_latency::total 216044227402                       # number of demand (read+write) MSHR miss cycles
system.cpu.dcache.overall_mshr_miss_latency::.cpu.data 301821338402                       # number of overall MSHR miss cycles
system.cpu.dcache.overall_mshr_miss_latency::total 301821338402                       # number of overall MSHR miss cycles
system.cpu.dcache.overall_mshr_uncacheable_latency::.cpu.data   9376501000                       # number of overall MSHR uncacheable cycles
system.cpu.dcache.overall_mshr_uncacheable_latency::total   9376501000                       # number of overall MSHR uncacheable cycles
system.cpu.dcache.demand_mshr_miss_rate::.cpu.data     0.003365                       # mshr miss rate for demand accesses
system.cpu.dcache.demand_mshr_miss_rate::total     0.003365                       # mshr miss rate for demand accesses
system.cpu.dcache.overall_mshr_miss_rate::.cpu.data     0.004318                       # mshr miss rate for overall accesses
system.cpu.dcache.overall_mshr_miss_rate::total     0.004318                       # mshr miss rate for overall accesses
system.cpu.dcache.demand_avg_mshr_miss_latency::.cpu.data 59527.516445                       # average overall mshr miss latency
system.cpu.dcache.demand_avg_mshr_miss_latency::total 59527.516445                       # average overall mshr miss latency
system.cpu.dcache.overall_avg_mshr_miss_latency::.cpu.data 64746.005392                       # average overall mshr miss latency
system.cpu.dcache.overall_avg_mshr_miss_latency::total 64746.005392                       # average overall mshr miss latency
system.cpu.dcache.overall_avg_mshr_uncacheable_latency::.cpu.data 13996.699547                       # average overall mshr uncacheable latency
system.cpu.dcache.overall_avg_mshr_uncacheable_latency::total 13996.699547                       # average overall mshr uncacheable latency
system.cpu.dcache.replacements                4652768                       # number of replacements
system.cpu.dcache.ReadReq_hits::.cpu.data    611581673                       # number of ReadReq hits
system.cpu.dcache.ReadReq_hits::total       611581673                       # number of ReadReq hits
system.cpu.dcache.ReadReq_misses::.cpu.data      2822870                       # number of ReadReq misses
system.cpu.dcache.ReadReq_misses::total       2822870                       # number of ReadReq misses
system.cpu.dcache.ReadReq_miss_latency::.cpu.data 150054604000                       # number of ReadReq miss cycles
system.cpu.dcache.ReadReq_miss_latency::total 150054604000                       # number of ReadReq miss cycles
system.cpu.dcache.ReadReq_accesses::.cpu.data    614404543                       # number of ReadReq accesses(hits+misses)
system.cpu.dcache.ReadReq_accesses::total    614404543                       # number of ReadReq accesses(hits+misses)
system.cpu.dcache.ReadReq_miss_rate::.cpu.data     0.004594                       # miss rate for ReadReq accesses
system.cpu.dcache.ReadReq_miss_rate::total     0.004594                       # miss rate for ReadReq accesses
system.cpu.dcache.ReadReq_avg_miss_latency::.cpu.data 53156.753233                       # average ReadReq miss latency
system.cpu.dcache.ReadReq_avg_miss_latency::total 53156.753233                       # average ReadReq miss latency
system.cpu.dcache.ReadReq_mshr_hits::.cpu.data      1980804                       # number of ReadReq MSHR hits
system.cpu.dcache.ReadReq_mshr_hits::total      1980804                       # number of ReadReq MSHR hits
system.cpu.dcache.ReadReq_mshr_misses::.cpu.data       842066                       # number of ReadReq MSHR misses
system.cpu.dcache.ReadReq_mshr_misses::total       842066                       # number of ReadReq MSHR misses
system.cpu.dcache.ReadReq_mshr_uncacheable::.cpu.data        43777                       # number of ReadReq MSHR uncacheable
system.cpu.dcache.ReadReq_mshr_uncacheable::total        43777                       # number of ReadReq MSHR uncacheable
system.cpu.dcache.ReadReq_mshr_miss_latency::.cpu.data  53200991000                       # number of ReadReq MSHR miss cycles
system.cpu.dcache.ReadReq_mshr_miss_latency::total  53200991000                       # number of ReadReq MSHR miss cycles
system.cpu.dcache.ReadReq_mshr_uncacheable_latency::.cpu.data   9376501000                       # number of ReadReq MSHR uncacheable cycles
system.cpu.dcache.ReadReq_mshr_uncacheable_latency::total   9376501000                       # number of ReadReq MSHR uncacheable cycles
system.cpu.dcache.ReadReq_mshr_miss_rate::.cpu.data     0.001371                       # mshr miss rate for ReadReq accesses
system.cpu.dcache.ReadReq_mshr_miss_rate::total     0.001371                       # mshr miss rate for ReadReq accesses
system.cpu.dcache.ReadReq_avg_mshr_miss_latency::.cpu.data 63179.122539                       # average ReadReq mshr miss latency
system.cpu.dcache.ReadReq_avg_mshr_miss_latency::total 63179.122539                       # average ReadReq mshr miss latency
system.cpu.dcache.ReadReq_avg_mshr_uncacheable_latency::.cpu.data 214187.838363                       # average ReadReq mshr uncacheable latency
system.cpu.dcache.ReadReq_avg_mshr_uncacheable_latency::total 214187.838363                       # average ReadReq mshr uncacheable latency
system.cpu.dcache.WriteReq_hits::.cpu.data    461338750                       # number of WriteReq hits
system.cpu.dcache.WriteReq_hits::total      461338750                       # number of WriteReq hits
system.cpu.dcache.WriteReq_misses::.cpu.data      2838515                       # number of WriteReq misses
system.cpu.dcache.WriteReq_misses::total      2838515                       # number of WriteReq misses
system.cpu.dcache.WriteReq_miss_latency::.cpu.data 168784233400                       # number of WriteReq miss cycles
system.cpu.dcache.WriteReq_miss_latency::total 168784233400                       # number of WriteReq miss cycles
system.cpu.dcache.WriteReq_accesses::.cpu.data    464177265                       # number of WriteReq accesses(hits+misses)
system.cpu.dcache.WriteReq_accesses::total    464177265                       # number of WriteReq accesses(hits+misses)
system.cpu.dcache.WriteReq_miss_rate::.cpu.data     0.006115                       # miss rate for WriteReq accesses
system.cpu.dcache.WriteReq_miss_rate::total     0.006115                       # miss rate for WriteReq accesses
system.cpu.dcache.WriteReq_avg_miss_latency::.cpu.data 59462.160108                       # average WriteReq miss latency
system.cpu.dcache.WriteReq_avg_miss_latency::total 59462.160108                       # average WriteReq miss latency
system.cpu.dcache.WriteReq_mshr_hits::.cpu.data        51264                       # number of WriteReq MSHR hits
system.cpu.dcache.WriteReq_mshr_hits::total        51264                       # number of WriteReq MSHR hits
system.cpu.dcache.WriteReq_mshr_misses::.cpu.data      2787251                       # number of WriteReq MSHR misses
system.cpu.dcache.WriteReq_mshr_misses::total      2787251                       # number of WriteReq MSHR misses
system.cpu.dcache.WriteReq_mshr_uncacheable::.cpu.data       626131                       # number of WriteReq MSHR uncacheable
system.cpu.dcache.WriteReq_mshr_uncacheable::total       626131                       # number of WriteReq MSHR uncacheable
system.cpu.dcache.WriteReq_mshr_miss_latency::.cpu.data 162843236402                       # number of WriteReq MSHR miss cycles
system.cpu.dcache.WriteReq_mshr_miss_latency::total 162843236402                       # number of WriteReq MSHR miss cycles
system.cpu.dcache.WriteReq_mshr_miss_rate::.cpu.data     0.006005                       # mshr miss rate for WriteReq accesses
system.cpu.dcache.WriteReq_mshr_miss_rate::total     0.006005                       # mshr miss rate for WriteReq accesses
system.cpu.dcache.WriteReq_avg_mshr_miss_latency::.cpu.data 58424.317150                       # average WriteReq mshr miss latency
system.cpu.dcache.WriteReq_avg_mshr_miss_latency::total 58424.317150                       # average WriteReq mshr miss latency
system.cpu.dcache.SoftPFReq_hits::.cpu.data        47098                       # number of SoftPFReq hits
system.cpu.dcache.SoftPFReq_hits::total         47098                       # number of SoftPFReq hits
system.cpu.dcache.SoftPFReq_misses::.cpu.data      1032663                       # number of SoftPFReq misses
system.cpu.dcache.SoftPFReq_misses::total      1032663                       # number of SoftPFReq misses
system.cpu.dcache.SoftPFReq_accesses::.cpu.data      1079761                       # number of SoftPFReq accesses(hits+misses)
system.cpu.dcache.SoftPFReq_accesses::total      1079761                       # number of SoftPFReq accesses(hits+misses)
system.cpu.dcache.SoftPFReq_miss_rate::.cpu.data     0.956381                       # miss rate for SoftPFReq accesses
system.cpu.dcache.SoftPFReq_miss_rate::total     0.956381                       # miss rate for SoftPFReq accesses
system.cpu.dcache.SoftPFReq_mshr_misses::.cpu.data      1032304                       # number of SoftPFReq MSHR misses
system.cpu.dcache.SoftPFReq_mshr_misses::total      1032304                       # number of SoftPFReq MSHR misses
system.cpu.dcache.SoftPFReq_mshr_miss_latency::.cpu.data  85777111000                       # number of SoftPFReq MSHR miss cycles
system.cpu.dcache.SoftPFReq_mshr_miss_latency::total  85777111000                       # number of SoftPFReq MSHR miss cycles
system.cpu.dcache.SoftPFReq_mshr_miss_rate::.cpu.data     0.956049                       # mshr miss rate for SoftPFReq accesses
system.cpu.dcache.SoftPFReq_mshr_miss_rate::total     0.956049                       # mshr miss rate for SoftPFReq accesses
system.cpu.dcache.SoftPFReq_avg_mshr_miss_latency::.cpu.data 83092.878648                       # average SoftPFReq mshr miss latency
system.cpu.dcache.SoftPFReq_avg_mshr_miss_latency::total 83092.878648                       # average SoftPFReq mshr miss latency
system.cpu.dcache.power_state.pwrStateResidencyTicks::UNDEFINED 2420308666254500                       # Cumulative time (in ticks) in various power states
system.cpu.dcache.tags.tagsinuse          1023.999975                       # Cycle average of tags in use
system.cpu.dcache.tags.total_refs          1077629170                       # Total number of references to valid blocks.
system.cpu.dcache.tags.sampled_refs           4653798                       # Sample count of references to valid blocks.
system.cpu.dcache.tags.avg_refs            231.559077                       # Average number of references to valid blocks.
system.cpu.dcache.tags.warmup_cycle            412000                       # Cycle when the warmup percentage was hit.
system.cpu.dcache.tags.occ_blocks::.cpu.data  1023.999975                       # Average occupied blocks per requestor
system.cpu.dcache.tags.occ_percent::.cpu.data     1.000000                       # Average percentage of cache occupancy
system.cpu.dcache.tags.occ_percent::total     1.000000                       # Average percentage of cache occupancy
system.cpu.dcache.tags.occ_task_id_blocks::1024         1024                       # Occupied blocks per task id
system.cpu.dcache.tags.age_task_id_blocks_1024::4         1024                       # Occupied blocks per task id
system.cpu.dcache.tags.occ_task_id_percent::1024            1                       # Percentage of cache occupancy per task id
system.cpu.dcache.tags.tag_accesses        2163976936                       # Number of tag accesses
system.cpu.dcache.tags.data_accesses       2163976936                       # Number of data accesses
system.cpu.dcache.tags.power_state.pwrStateResidencyTicks::UNDEFINED 2420308666254500                       # Cumulative time (in ticks) in various power states
system.cpu.decode.idleCycles               2045429099                       # Number of cycles decode is idle
system.cpu.decode.blockedCycles            1156862566                       # Number of cycles decode is blocked
system.cpu.decode.runCycles                 838128430                       # Number of cycles decode is running
system.cpu.decode.unblockCycles             105627009                       # Number of cycles decode is unblocking
system.cpu.decode.squashCycles               17803998                       # Number of cycles decode is squashing
system.cpu.decode.branchResolved            426242229                       # Number of times decode resolved a  branch
system.cpu.decode.branchMispred               9777190                       # Number of times decode detected a branch misprediction
system.cpu.decode.decodedInsts             5740424567                       # Number of instructions handled by decode
system.cpu.decode.squashedInsts              50406325                       # Number of squashed instructions handled by decode
system.cpu.dtb_walker_cache.demand_hits::.cpu.mmu.dtb.walker      1726822                       # number of demand (read+write) hits
system.cpu.dtb_walker_cache.demand_hits::total      1726822                       # number of demand (read+write) hits
system.cpu.dtb_walker_cache.overall_hits::.cpu.mmu.dtb.walker      1726822                       # number of overall hits
system.cpu.dtb_walker_cache.overall_hits::total      1726822                       # number of overall hits
system.cpu.dtb_walker_cache.demand_misses::.cpu.mmu.dtb.walker      3973160                       # number of demand (read+write) misses
system.cpu.dtb_walker_cache.demand_misses::total      3973160                       # number of demand (read+write) misses
system.cpu.dtb_walker_cache.overall_misses::.cpu.mmu.dtb.walker      3973160                       # number of overall misses
system.cpu.dtb_walker_cache.overall_misses::total      3973160                       # number of overall misses
system.cpu.dtb_walker_cache.demand_miss_latency::.cpu.mmu.dtb.walker 249178557000                       # number of demand (read+write) miss cycles
system.cpu.dtb_walker_cache.demand_miss_latency::total 249178557000                       # number of demand (read+write) miss cycles
system.cpu.dtb_walker_cache.overall_miss_latency::.cpu.mmu.dtb.walker 249178557000                       # number of overall miss cycles
system.cpu.dtb_walker_cache.overall_miss_latency::total 249178557000                       # number of overall miss cycles
system.cpu.dtb_walker_cache.demand_accesses::.cpu.mmu.dtb.walker      5699982                       # number of demand (read+write) accesses
system.cpu.dtb_walker_cache.demand_accesses::total      5699982                       # number of demand (read+write) accesses
system.cpu.dtb_walker_cache.overall_accesses::.cpu.mmu.dtb.walker      5699982                       # number of overall (read+write) accesses
system.cpu.dtb_walker_cache.overall_accesses::total      5699982                       # number of overall (read+write) accesses
system.cpu.dtb_walker_cache.demand_miss_rate::.cpu.mmu.dtb.walker     0.697048                       # miss rate for demand accesses
system.cpu.dtb_walker_cache.demand_miss_rate::total     0.697048                       # miss rate for demand accesses
system.cpu.dtb_walker_cache.overall_miss_rate::.cpu.mmu.dtb.walker     0.697048                       # miss rate for overall accesses
system.cpu.dtb_walker_cache.overall_miss_rate::total     0.697048                       # miss rate for overall accesses
system.cpu.dtb_walker_cache.demand_avg_miss_latency::.cpu.mmu.dtb.walker 62715.459987                       # average overall miss latency
system.cpu.dtb_walker_cache.demand_avg_miss_latency::total 62715.459987                       # average overall miss latency
system.cpu.dtb_walker_cache.overall_avg_miss_latency::.cpu.mmu.dtb.walker 62715.459987                       # average overall miss latency
system.cpu.dtb_walker_cache.overall_avg_miss_latency::total 62715.459987                       # average overall miss latency
system.cpu.dtb_walker_cache.blocked_cycles::no_mshrs            0                       # number of cycles access was blocked
system.cpu.dtb_walker_cache.blocked_cycles::no_targets            0                       # number of cycles access was blocked
system.cpu.dtb_walker_cache.blocked::no_mshrs            0                       # number of cycles access was blocked
system.cpu.dtb_walker_cache.blocked::no_targets            0                       # number of cycles access was blocked
system.cpu.dtb_walker_cache.avg_blocked_cycles::no_mshrs          nan                       # average number of cycles each access was blocked
system.cpu.dtb_walker_cache.avg_blocked_cycles::no_targets          nan                       # average number of cycles each access was blocked
system.cpu.dtb_walker_cache.demand_mshr_misses::.cpu.mmu.dtb.walker      3973160                       # number of demand (read+write) MSHR misses
system.cpu.dtb_walker_cache.demand_mshr_misses::total      3973160                       # number of demand (read+write) MSHR misses
system.cpu.dtb_walker_cache.overall_mshr_misses::.cpu.mmu.dtb.walker      3973160                       # number of overall MSHR misses
system.cpu.dtb_walker_cache.overall_mshr_misses::total      3973160                       # number of overall MSHR misses
system.cpu.dtb_walker_cache.demand_mshr_miss_latency::.cpu.mmu.dtb.walker 245205397000                       # number of demand (read+write) MSHR miss cycles
system.cpu.dtb_walker_cache.demand_mshr_miss_latency::total 245205397000                       # number of demand (read+write) MSHR miss cycles
system.cpu.dtb_walker_cache.overall_mshr_miss_latency::.cpu.mmu.dtb.walker 245205397000                       # number of overall MSHR miss cycles
system.cpu.dtb_walker_cache.overall_mshr_miss_latency::total 245205397000                       # number of overall MSHR miss cycles
system.cpu.dtb_walker_cache.demand_mshr_miss_rate::.cpu.mmu.dtb.walker     0.697048                       # mshr miss rate for demand accesses
system.cpu.dtb_walker_cache.demand_mshr_miss_rate::total     0.697048                       # mshr miss rate for demand accesses
system.cpu.dtb_walker_cache.overall_mshr_miss_rate::.cpu.mmu.dtb.walker     0.697048                       # mshr miss rate for overall accesses
system.cpu.dtb_walker_cache.overall_mshr_miss_rate::total     0.697048                       # mshr miss rate for overall accesses
system.cpu.dtb_walker_cache.demand_avg_mshr_miss_latency::.cpu.mmu.dtb.walker 61715.459987                       # average overall mshr miss latency
system.cpu.dtb_walker_cache.demand_avg_mshr_miss_latency::total 61715.459987                       # average overall mshr miss latency
system.cpu.dtb_walker_cache.overall_avg_mshr_miss_latency::.cpu.mmu.dtb.walker 61715.459987                       # average overall mshr miss latency
system.cpu.dtb_walker_cache.overall_avg_mshr_miss_latency::total 61715.459987                       # average overall mshr miss latency
system.cpu.dtb_walker_cache.replacements      3966197                       # number of replacements
system.cpu.dtb_walker_cache.ReadReq_hits::.cpu.mmu.dtb.walker      1726822                       # number of ReadReq hits
system.cpu.dtb_walker_cache.ReadReq_hits::total      1726822                       # number of ReadReq hits
system.cpu.dtb_walker_cache.ReadReq_misses::.cpu.mmu.dtb.walker      3973160                       # number of ReadReq misses
system.cpu.dtb_walker_cache.ReadReq_misses::total      3973160                       # number of ReadReq misses
system.cpu.dtb_walker_cache.ReadReq_miss_latency::.cpu.mmu.dtb.walker 249178557000                       # number of ReadReq miss cycles
system.cpu.dtb_walker_cache.ReadReq_miss_latency::total 249178557000                       # number of ReadReq miss cycles
system.cpu.dtb_walker_cache.ReadReq_accesses::.cpu.mmu.dtb.walker      5699982                       # number of ReadReq accesses(hits+misses)
system.cpu.dtb_walker_cache.ReadReq_accesses::total      5699982                       # number of ReadReq accesses(hits+misses)
system.cpu.dtb_walker_cache.ReadReq_miss_rate::.cpu.mmu.dtb.walker     0.697048                       # miss rate for ReadReq accesses
system.cpu.dtb_walker_cache.ReadReq_miss_rate::total     0.697048                       # miss rate for ReadReq accesses
system.cpu.dtb_walker_cache.ReadReq_avg_miss_latency::.cpu.mmu.dtb.walker 62715.459987                       # average ReadReq miss latency
system.cpu.dtb_walker_cache.ReadReq_avg_miss_latency::total 62715.459987                       # average ReadReq miss latency
system.cpu.dtb_walker_cache.ReadReq_mshr_misses::.cpu.mmu.dtb.walker      3973160                       # number of ReadReq MSHR misses
system.cpu.dtb_walker_cache.ReadReq_mshr_misses::total      3973160                       # number of ReadReq MSHR misses
system.cpu.dtb_walker_cache.ReadReq_mshr_miss_latency::.cpu.mmu.dtb.walker 245205397000                       # number of ReadReq MSHR miss cycles
system.cpu.dtb_walker_cache.ReadReq_mshr_miss_latency::total 245205397000                       # number of ReadReq MSHR miss cycles
system.cpu.dtb_walker_cache.ReadReq_mshr_miss_rate::.cpu.mmu.dtb.walker     0.697048                       # mshr miss rate for ReadReq accesses
system.cpu.dtb_walker_cache.ReadReq_mshr_miss_rate::total     0.697048                       # mshr miss rate for ReadReq accesses
system.cpu.dtb_walker_cache.ReadReq_avg_mshr_miss_latency::.cpu.mmu.dtb.walker 61715.459987                       # average ReadReq mshr miss latency
system.cpu.dtb_walker_cache.ReadReq_avg_mshr_miss_latency::total 61715.459987                       # average ReadReq mshr miss latency
system.cpu.dtb_walker_cache.power_state.pwrStateResidencyTicks::UNDEFINED 2420308666254500                       # Cumulative time (in ticks) in various power states
system.cpu.dtb_walker_cache.tags.tagsinuse    15.999428                       # Cycle average of tags in use
system.cpu.dtb_walker_cache.tags.total_refs      5699982                       # Total number of references to valid blocks.
system.cpu.dtb_walker_cache.tags.sampled_refs      3973160                       # Sample count of references to valid blocks.
system.cpu.dtb_walker_cache.tags.avg_refs     1.434622                       # Average number of references to valid blocks.
system.cpu.dtb_walker_cache.tags.warmup_cycle       280000                       # Cycle when the warmup percentage was hit.
system.cpu.dtb_walker_cache.tags.occ_blocks::.cpu.mmu.dtb.walker    15.999428                       # Average occupied blocks per requestor
system.cpu.dtb_walker_cache.tags.occ_percent::.cpu.mmu.dtb.walker     0.999964                       # Average percentage of cache occupancy
system.cpu.dtb_walker_cache.tags.occ_percent::total     0.999964                       # Average percentage of cache occupancy
system.cpu.dtb_walker_cache.tags.occ_task_id_blocks::1024           16                       # Occupied blocks per task id
system.cpu.dtb_walker_cache.tags.age_task_id_blocks_1024::0            2                       # Occupied blocks per task id
system.cpu.dtb_walker_cache.tags.age_task_id_blocks_1024::4           14                       # Occupied blocks per task id
system.cpu.dtb_walker_cache.tags.occ_task_id_percent::1024            1                       # Percentage of cache occupancy per task id
system.cpu.dtb_walker_cache.tags.tag_accesses     15373124                       # Number of tag accesses
system.cpu.dtb_walker_cache.tags.data_accesses     15373124                       # Number of data accesses
system.cpu.dtb_walker_cache.tags.power_state.pwrStateResidencyTicks::UNDEFINED 2420308666254500                       # Cumulative time (in ticks) in various power states
system.cpu.fetch.icacheStallCycles         2163536158                       # Number of cycles fetch is stalled on an Icache miss
system.cpu.fetch.insts                     2441581616                       # Number of instructions fetch has processed
system.cpu.fetch.branches                   787689999                       # Number of branches that fetch encountered
system.cpu.fetch.predictedBranches          542316217                       # Number of branches that fetch has predicted taken
system.cpu.fetch.cycles                    1943716766                       # Number of cycles fetch has run and was not squashing or blocked
system.cpu.fetch.squashCycles                55018740                       # Number of cycles fetch has spent squashing
system.cpu.fetch.tlbCycles                   14617521                       # Number of cycles fetch has spent waiting for tlb
system.cpu.fetch.miscStallCycles              7382164                       # Number of cycles fetch has spent waiting on interrupts, or bad addresses, or out of MSHRs
system.cpu.fetch.pendingTrapStallCycles       2800617                       # Number of stall cycles due to pending traps
system.cpu.fetch.pendingQuiesceStallCycles      4251356                       # Number of stall cycles due to pending quiesce instructions
system.cpu.fetch.icacheWaitRetryStallCycles        37150                       # Number of stall cycles due to full MSHR
system.cpu.fetch.cacheLines                 314036519                       # Number of cache lines fetched
system.cpu.fetch.icacheSquashes               9320690                       # Number of outstanding Icache misses that were squashed
system.cpu.fetch.tlbSquashes                    14065                       # Number of outstanding ITLB misses that were squashed
system.cpu.fetch.nisnDist::samples         4163851102                       # Number of instructions fetched each cycle (Total)
system.cpu.fetch.nisnDist::mean              1.459586                       # Number of instructions fetched each cycle (Total)
system.cpu.fetch.nisnDist::stdev             2.801984                       # Number of instructions fetched each cycle (Total)
system.cpu.fetch.nisnDist::underflows               0      0.00%      0.00% # Number of instructions fetched each cycle (Total)
system.cpu.fetch.nisnDist::0               3094383007     74.32%     74.32% # Number of instructions fetched each cycle (Total)
system.cpu.fetch.nisnDist::1                105230258      2.53%     76.84% # Number of instructions fetched each cycle (Total)
system.cpu.fetch.nisnDist::2                 36226891      0.87%     77.71% # Number of instructions fetched each cycle (Total)
system.cpu.fetch.nisnDist::3                165583303      3.98%     81.69% # Number of instructions fetched each cycle (Total)
system.cpu.fetch.nisnDist::4                 60539067      1.45%     83.14% # Number of instructions fetched each cycle (Total)
system.cpu.fetch.nisnDist::5                110298437      2.65%     85.79% # Number of instructions fetched each cycle (Total)
system.cpu.fetch.nisnDist::6                 41404960      0.99%     86.79% # Number of instructions fetched each cycle (Total)
system.cpu.fetch.nisnDist::7                 40493322      0.97%     87.76% # Number of instructions fetched each cycle (Total)
system.cpu.fetch.nisnDist::8                509691857     12.24%    100.00% # Number of instructions fetched each cycle (Total)
system.cpu.fetch.nisnDist::overflows                0      0.00%    100.00% # Number of instructions fetched each cycle (Total)
system.cpu.fetch.nisnDist::min_value                0                       # Number of instructions fetched each cycle (Total)
system.cpu.fetch.nisnDist::max_value                8                       # Number of instructions fetched each cycle (Total)
system.cpu.fetch.nisnDist::total           4163851102                       # Number of instructions fetched each cycle (Total)
system.cpu.fetch.branchRate                  0.089481                       # Number of branch fetches per cycle
system.cpu.fetch.rate                        0.277362                       # Number of inst fetches per cycle
system.cpu.icache.demand_hits::.cpu.inst    244852015                       # number of demand (read+write) hits
system.cpu.icache.demand_hits::total        244852015                       # number of demand (read+write) hits
system.cpu.icache.overall_hits::.cpu.inst    244852015                       # number of overall hits
system.cpu.icache.overall_hits::total       244852015                       # number of overall hits
system.cpu.icache.demand_misses::.cpu.inst     69183861                       # number of demand (read+write) misses
system.cpu.icache.demand_misses::total       69183861                       # number of demand (read+write) misses
system.cpu.icache.overall_misses::.cpu.inst     69183861                       # number of overall misses
system.cpu.icache.overall_misses::total      69183861                       # number of overall misses
system.cpu.icache.demand_miss_latency::.cpu.inst 3658830038984                       # number of demand (read+write) miss cycles
system.cpu.icache.demand_miss_latency::total 3658830038984                       # number of demand (read+write) miss cycles
system.cpu.icache.overall_miss_latency::.cpu.inst 3658830038984                       # number of overall miss cycles
system.cpu.icache.overall_miss_latency::total 3658830038984                       # number of overall miss cycles
system.cpu.icache.demand_accesses::.cpu.inst    314035876                       # number of demand (read+write) accesses
system.cpu.icache.demand_accesses::total    314035876                       # number of demand (read+write) accesses
system.cpu.icache.overall_accesses::.cpu.inst    314035876                       # number of overall (read+write) accesses
system.cpu.icache.overall_accesses::total    314035876                       # number of overall (read+write) accesses
system.cpu.icache.demand_miss_rate::.cpu.inst     0.220306                       # miss rate for demand accesses
system.cpu.icache.demand_miss_rate::total     0.220306                       # miss rate for demand accesses
system.cpu.icache.overall_miss_rate::.cpu.inst     0.220306                       # miss rate for overall accesses
system.cpu.icache.overall_miss_rate::total     0.220306                       # miss rate for overall accesses
system.cpu.icache.demand_avg_miss_latency::.cpu.inst 52885.600574                       # average overall miss latency
system.cpu.icache.demand_avg_miss_latency::total 52885.600574                       # average overall miss latency
system.cpu.icache.overall_avg_miss_latency::.cpu.inst 52885.600574                       # average overall miss latency
system.cpu.icache.overall_avg_miss_latency::total 52885.600574                       # average overall miss latency
system.cpu.icache.blocked_cycles::no_mshrs       395195                       # number of cycles access was blocked
system.cpu.icache.blocked_cycles::no_targets          124                       # number of cycles access was blocked
system.cpu.icache.blocked::no_mshrs              9775                       # number of cycles access was blocked
system.cpu.icache.blocked::no_targets               1                       # number of cycles access was blocked
system.cpu.icache.avg_blocked_cycles::no_mshrs    40.429156                       # average number of cycles each access was blocked
system.cpu.icache.avg_blocked_cycles::no_targets          124                       # average number of cycles each access was blocked
system.cpu.icache.writebacks::.writebacks     65337957                       # number of writebacks
system.cpu.icache.writebacks::total          65337957                       # number of writebacks
system.cpu.icache.demand_mshr_hits::.cpu.inst      3845505                       # number of demand (read+write) MSHR hits
system.cpu.icache.demand_mshr_hits::total      3845505                       # number of demand (read+write) MSHR hits
system.cpu.icache.overall_mshr_hits::.cpu.inst      3845505                       # number of overall MSHR hits
system.cpu.icache.overall_mshr_hits::total      3845505                       # number of overall MSHR hits
system.cpu.icache.demand_mshr_misses::.cpu.inst     65338356                       # number of demand (read+write) MSHR misses
system.cpu.icache.demand_mshr_misses::total     65338356                       # number of demand (read+write) MSHR misses
system.cpu.icache.overall_mshr_misses::.cpu.inst     65338356                       # number of overall MSHR misses
system.cpu.icache.overall_mshr_misses::total     65338356                       # number of overall MSHR misses
system.cpu.icache.demand_mshr_miss_latency::.cpu.inst 3458013843456                       # number of demand (read+write) MSHR miss cycles
system.cpu.icache.demand_mshr_miss_latency::total 3458013843456                       # number of demand (read+write) MSHR miss cycles
system.cpu.icache.overall_mshr_miss_latency::.cpu.inst 3458013843456                       # number of overall MSHR miss cycles
system.cpu.icache.overall_mshr_miss_latency::total 3458013843456                       # number of overall MSHR miss cycles
system.cpu.icache.demand_mshr_miss_rate::.cpu.inst     0.208060                       # mshr miss rate for demand accesses
system.cpu.icache.demand_mshr_miss_rate::total     0.208060                       # mshr miss rate for demand accesses
system.cpu.icache.overall_mshr_miss_rate::.cpu.inst     0.208060                       # mshr miss rate for overall accesses
system.cpu.icache.overall_mshr_miss_rate::total     0.208060                       # mshr miss rate for overall accesses
system.cpu.icache.demand_avg_mshr_miss_latency::.cpu.inst 52924.714596                       # average overall mshr miss latency
system.cpu.icache.demand_avg_mshr_miss_latency::total 52924.714596                       # average overall mshr miss latency
system.cpu.icache.overall_avg_mshr_miss_latency::.cpu.inst 52924.714596                       # average overall mshr miss latency
system.cpu.icache.overall_avg_mshr_miss_latency::total 52924.714596                       # average overall mshr miss latency
system.cpu.icache.replacements               65337957                       # number of replacements
system.cpu.icache.ReadReq_hits::.cpu.inst    244852015                       # number of ReadReq hits
system.cpu.icache.ReadReq_hits::total       244852015                       # number of ReadReq hits
system.cpu.icache.ReadReq_misses::.cpu.inst     69183861                       # number of ReadReq misses
system.cpu.icache.ReadReq_misses::total      69183861                       # number of ReadReq misses
system.cpu.icache.ReadReq_miss_latency::.cpu.inst 3658830038984                       # number of ReadReq miss cycles
system.cpu.icache.ReadReq_miss_latency::total 3658830038984                       # number of ReadReq miss cycles
system.cpu.icache.ReadReq_accesses::.cpu.inst    314035876                       # number of ReadReq accesses(hits+misses)
system.cpu.icache.ReadReq_accesses::total    314035876                       # number of ReadReq accesses(hits+misses)
system.cpu.icache.ReadReq_miss_rate::.cpu.inst     0.220306                       # miss rate for ReadReq accesses
system.cpu.icache.ReadReq_miss_rate::total     0.220306                       # miss rate for ReadReq accesses
system.cpu.icache.ReadReq_avg_miss_latency::.cpu.inst 52885.600574                       # average ReadReq miss latency
system.cpu.icache.ReadReq_avg_miss_latency::total 52885.600574                       # average ReadReq miss latency
system.cpu.icache.ReadReq_mshr_hits::.cpu.inst      3845505                       # number of ReadReq MSHR hits
system.cpu.icache.ReadReq_mshr_hits::total      3845505                       # number of ReadReq MSHR hits
system.cpu.icache.ReadReq_mshr_misses::.cpu.inst     65338356                       # number of ReadReq MSHR misses
system.cpu.icache.ReadReq_mshr_misses::total     65338356                       # number of ReadReq MSHR misses
system.cpu.icache.ReadReq_mshr_miss_latency::.cpu.inst 3458013843456                       # number of ReadReq MSHR miss cycles
system.cpu.icache.ReadReq_mshr_miss_latency::total 3458013843456                       # number of ReadReq MSHR miss cycles
system.cpu.icache.ReadReq_mshr_miss_rate::.cpu.inst     0.208060                       # mshr miss rate for ReadReq accesses
system.cpu.icache.ReadReq_mshr_miss_rate::total     0.208060                       # mshr miss rate for ReadReq accesses
system.cpu.icache.ReadReq_avg_mshr_miss_latency::.cpu.inst 52924.714596                       # average ReadReq mshr miss latency
system.cpu.icache.ReadReq_avg_mshr_miss_latency::total 52924.714596                       # average ReadReq mshr miss latency
system.cpu.icache.power_state.pwrStateResidencyTicks::UNDEFINED 2420308666254500                       # Cumulative time (in ticks) in various power states
system.cpu.icache.tags.tagsinuse           255.999587                       # Cycle average of tags in use
system.cpu.icache.tags.total_refs           310190371                       # Total number of references to valid blocks.
system.cpu.icache.tags.sampled_refs          65338356                       # Sample count of references to valid blocks.
system.cpu.icache.tags.avg_refs              4.747447                       # Average number of references to valid blocks.
[...]
system.mem_ctrls1.dram.rank1.averagePower   465.342857                       # Core power per rank (mW)
system.mem_ctrls1.dram.rank1.totalIdleTime            0                       # Total Idle time Per DRAM Rank
system.mem_ctrls1.dram.rank1.pwrStateTime::IDLE 2335822324759857                       # Time in different power states
system.mem_ctrls1.dram.rank1.pwrStateTime::REF 80819425440000                       # Time in different power states
system.mem_ctrls1.dram.rank1.pwrStateTime::SREF            0                       # Time in different power states
system.mem_ctrls1.dram.rank1.pwrStateTime::PRE_PDN            0                       # Time in different power states
system.mem_ctrls1.dram.rank1.pwrStateTime::ACT 3666916054643                       # Time in different power states
system.mem_ctrls1.dram.rank1.pwrStateTime::ACT_PDN            0                       # Time in different power states
system.mem_ctrls1.power_state.pwrStateResidencyTicks::UNDEFINED 2420308666254500                       # Cumulative time (in ticks) in various power states
system.membus.trans_dist::ReadReq               43777                       # Transaction distribution
system.membus.trans_dist::ReadResp           71392161                       # Transaction distribution
system.membus.trans_dist::WriteReq             629699                       # Transaction distribution
system.membus.trans_dist::WriteResp            629699                       # Transaction distribution
system.membus.trans_dist::WritebackDirty      4149960                       # Transaction distribution
system.membus.trans_dist::WritebackClean     65337957                       # Transaction distribution
system.membus.trans_dist::CleanEvict          4680276                       # Transaction distribution
system.membus.trans_dist::UpgradeReq             7824                       # Transaction distribution
system.membus.trans_dist::ReadExReq           2779475                       # Transaction distribution
system.membus.trans_dist::ReadExResp          2779475                       # Transaction distribution
system.membus.trans_dist::ReadCleanReq       65338356                       # Transaction distribution
system.membus.trans_dist::ReadSharedReq       6010028                       # Transaction distribution
system.membus.trans_dist::InvalidateReq         49376                       # Transaction distribution
system.membus.pkt_count_system.apicbridge.mem_side_port::system.cpu.interrupts.int_responder         7136                       # Packet count per connected requestor and responder (bytes)
system.membus.pkt_count_system.apicbridge.mem_side_port::total         7136                       # Packet count per connected requestor and responder (bytes)
system.membus.pkt_count_system.iocache.mem_side_port::system.mem_ctrls0.port       105948                       # Packet count per connected requestor and responder (bytes)
system.membus.pkt_count_system.iocache.mem_side_port::total       105948                       # Packet count per connected requestor and responder (bytes)
system.membus.pkt_count_system.cpu.icache.mem_side_port::system.mem_ctrls0.port    195628506                       # Packet count per connected requestor and responder (bytes)
system.membus.pkt_count_system.cpu.icache.mem_side_port::system.mem_ctrls1.port       386020                       # Packet count per connected requestor and responder (bytes)
system.membus.pkt_count_system.cpu.icache.mem_side_port::total    196014526                       # Packet count per connected requestor and responder (bytes)
system.membus.pkt_count_system.cpu.dcache.mem_side_port::system.bridge.cpu_side_port       126832                       # Packet count per connected requestor and responder (bytes)
system.membus.pkt_count_system.cpu.dcache.mem_side_port::system.cpu.interrupts.pio      1212984                       # Packet count per connected requestor and responder (bytes)
system.membus.pkt_count_system.cpu.dcache.mem_side_port::system.mem_ctrls0.port      4853634                       # Packet count per connected requestor and responder (bytes)
system.membus.pkt_count_system.cpu.dcache.mem_side_port::system.mem_ctrls1.port      9112932                       # Packet count per connected requestor and responder (bytes)
system.membus.pkt_count_system.cpu.dcache.mem_side_port::total     15306382                       # Packet count per connected requestor and responder (bytes)
system.membus.pkt_count_system.cpu.itb_walker_cache.mem_side_port::system.mem_ctrls0.port        19274                       # Packet count per connected requestor and responder (bytes)
system.membus.pkt_count_system.cpu.itb_walker_cache.mem_side_port::system.mem_ctrls1.port       448930                       # Packet count per connected requestor and responder (bytes)
system.membus.pkt_count_system.cpu.itb_walker_cache.mem_side_port::total       468204                       # Packet count per connected requestor and responder (bytes)
system.membus.pkt_count_system.cpu.dtb_walker_cache.mem_side_port::system.mem_ctrls0.port       277256                       # Packet count per connected requestor and responder (bytes)
system.membus.pkt_count_system.cpu.dtb_walker_cache.mem_side_port::system.mem_ctrls1.port     11595564                       # Packet count per connected requestor and responder (bytes)
system.membus.pkt_count_system.cpu.dtb_walker_cache.mem_side_port::total     11872820                       # Packet count per connected requestor and responder (bytes)
system.membus.pkt_count::total              223775016                       # Packet count per connected requestor and responder (bytes)
system.membus.pkt_size_system.apicbridge.mem_side_port::system.cpu.interrupts.int_responder        14272                       # Cumulative packet size per connected requestor and responder (bytes)
system.membus.pkt_size_system.apicbridge.mem_side_port::total        14272                       # Cumulative packet size per connected requestor and responder (bytes)
system.membus.pkt_size_system.iocache.mem_side_port::system.mem_ctrls0.port      3166080                       # Cumulative packet size per connected requestor and responder (bytes)
system.membus.pkt_size_system.iocache.mem_side_port::total      3166080                       # Cumulative packet size per connected requestor and responder (bytes)
system.membus.pkt_size_system.cpu.icache.mem_side_port::system.mem_ctrls0.port   8346806016                       # Cumulative packet size per connected requestor and responder (bytes)
system.membus.pkt_size_system.cpu.icache.mem_side_port::system.mem_ctrls1.port     16468864                       # Cumulative packet size per connected requestor and responder (bytes)
system.membus.pkt_size_system.cpu.icache.mem_side_port::total   8363274880                       # Cumulative packet size per connected requestor and responder (bytes)
system.membus.pkt_size_system.cpu.dcache.mem_side_port::system.bridge.cpu_side_port        65977                       # Cumulative packet size per connected requestor and responder (bytes)
system.membus.pkt_size_system.cpu.dcache.mem_side_port::system.cpu.interrupts.pio      2425968                       # Cumulative packet size per connected requestor and responder (bytes)
system.membus.pkt_size_system.cpu.dcache.mem_side_port::system.mem_ctrls0.port    184094336                       # Cumulative packet size per connected requestor and responder (bytes)
system.membus.pkt_size_system.cpu.dcache.mem_side_port::system.mem_ctrls1.port    376082176                       # Cumulative packet size per connected requestor and responder (bytes)
system.membus.pkt_size_system.cpu.dcache.mem_side_port::total    562668457                       # Cumulative packet size per connected requestor and responder (bytes)
system.membus.pkt_size_system.cpu.itb_walker_cache.mem_side_port::system.mem_ctrls0.port       410368                       # Cumulative packet size per connected requestor and responder (bytes)
system.membus.pkt_size_system.cpu.itb_walker_cache.mem_side_port::system.mem_ctrls1.port      9245184                       # Cumulative packet size per connected requestor and responder (bytes)
system.membus.pkt_size_system.cpu.itb_walker_cache.mem_side_port::total      9655552                       # Cumulative packet size per connected requestor and responder (bytes)
system.membus.pkt_size_system.cpu.dtb_walker_cache.mem_side_port::system.mem_ctrls0.port      5908224                       # Cumulative packet size per connected requestor and responder (bytes)
system.membus.pkt_size_system.cpu.dtb_walker_cache.mem_side_port::system.mem_ctrls1.port    245833408                       # Cumulative packet size per connected requestor and responder (bytes)
system.membus.pkt_size_system.cpu.dtb_walker_cache.mem_side_port::total    251741632                       # Cumulative packet size per connected requestor and responder (bytes)
system.membus.pkt_size::total              9190520873                       # Cumulative packet size per connected requestor and responder (bytes)
system.membus.snoops                            53047                       # Total snoops (count)
system.membus.snoopTraffic                    3395008                       # Total snoop traffic (bytes)
system.membus.snoop_fanout::samples          74858535                       # Request fanout histogram
system.membus.snoop_fanout::mean             0.021031                       # Request fanout histogram
system.membus.snoop_fanout::stdev            0.152492                       # Request fanout histogram
system.membus.snoop_fanout::underflows              0      0.00%      0.00% # Request fanout histogram
system.membus.snoop_fanout::0                73383948     98.03%     98.03% # Request fanout histogram
system.membus.snoop_fanout::1                 1374831      1.84%     99.87% # Request fanout histogram
system.membus.snoop_fanout::2                   99756      0.13%    100.00% # Request fanout histogram
system.membus.snoop_fanout::3                       0      0.00%    100.00% # Request fanout histogram
system.membus.snoop_fanout::4                       0      0.00%    100.00% # Request fanout histogram
system.membus.snoop_fanout::5                       0      0.00%    100.00% # Request fanout histogram
system.membus.snoop_fanout::overflows               0      0.00%    100.00% # Request fanout histogram
system.membus.snoop_fanout::min_value               0                       # Request fanout histogram
system.membus.snoop_fanout::max_value               2                       # Request fanout histogram
system.membus.snoop_fanout::total            74858535                       # Request fanout histogram
system.membus.badaddr_responder.power_state.pwrStateResidencyTicks::UNDEFINED 2420308666254500                       # Cumulative time (in ticks) in various power states
system.membus.power_state.pwrStateResidencyTicks::UNDEFINED 2420308666254500                       # Cumulative time (in ticks) in various power states
system.membus.reqLayer0.occupancy           101490500                       # Layer occupancy (ticks)
system.membus.reqLayer0.utilization               0.0                       # Layer utilization (%)
system.membus.reqLayer1.occupancy          1213656499                       # Layer occupancy (ticks)
system.membus.reqLayer1.utilization               0.0                       # Layer utilization (%)
system.membus.reqLayer2.occupancy             8679542                       # Layer occupancy (ticks)
system.membus.reqLayer2.utilization               0.0                       # Layer utilization (%)
system.membus.reqLayer3.occupancy        408754525879                       # Layer occupancy (ticks)
system.membus.reqLayer3.utilization               0.0                       # Layer utilization (%)
system.membus.reqLayer4.occupancy         27130866442                       # Layer occupancy (ticks)
system.membus.reqLayer4.utilization               0.0                       # Layer utilization (%)
system.membus.respLayer0.occupancy            5111542                       # Layer occupancy (ticks)
system.membus.respLayer0.utilization              0.0                       # Layer utilization (%)
system.membus.respLayer2.occupancy           18053266                       # Layer occupancy (ticks)
system.membus.respLayer2.utilization              0.0                       # Layer utilization (%)
system.membus.respLayer3.occupancy       341893453698                       # Layer occupancy (ticks)
system.membus.respLayer3.utilization              0.0                       # Layer utilization (%)
system.membus.respLayer4.occupancy        25207325036                       # Layer occupancy (ticks)
system.membus.respLayer4.utilization              0.0                       # Layer utilization (%)
system.membus.respLayer5.occupancy          856318750                       # Layer occupancy (ticks)
system.membus.respLayer5.utilization              0.0                       # Layer utilization (%)
system.membus.respLayer6.occupancy        21514110734                       # Layer occupancy (ticks)
system.membus.respLayer6.utilization              0.0                       # Layer utilization (%)
system.membus.snoop_filter.totRequests      148353380                       # Total number of requests made to the snoop filter.
system.membus.snoop_filter.hitSingleRequests     74069118                       # Number of requests hitting in the snoop filter with a single holder of the requested data.
system.membus.snoop_filter.hitMultiRequests      1574096                       # Number of requests hitting in the snoop filter with multiple (>1) holders of the requested data.
system.membus.snoop_filter.totSnoops                0                       # Total number of snoops made to the snoop filter.
system.membus.snoop_filter.hitSingleSnoops            0                       # Number of snoops hitting in the snoop filter with a single holder of the requested data.
system.membus.snoop_filter.hitMultiSnoops            0                       # Number of snoops hitting in the snoop filter with multiple (>1) holders of the requested data.
system.pc.bad_addr.power_state.pwrStateResidencyTicks::UNDEFINED 2420308666254500                       # Cumulative time (in ticks) in various power states
system.pc.com_1.power_state.pwrStateResidencyTicks::UNDEFINED 2420308666254500                       # Cumulative time (in ticks) in various power states
system.pc.default_bus.trans_dist::ReadReq            1                       # Transaction distribution
system.pc.default_bus.trans_dist::ReadResp            1                       # Transaction distribution
system.pc.default_bus.trans_dist::WriteReq            7                       # Transaction distribution
system.pc.default_bus.trans_dist::WriteResp            7                       # Transaction distribution
system.pc.default_bus.pkt_count_system.iobus.default::system.pc.empty_isa.pio           16                       # Packet count per connected requestor and responder (bytes)
system.pc.default_bus.pkt_count_system.iobus.default::total           16                       # Packet count per connected requestor and responder (bytes)
system.pc.default_bus.pkt_size_system.iobus.default::system.pc.empty_isa.pio            8                       # Cumulative packet size per connected requestor and responder (bytes)
system.pc.default_bus.pkt_size_system.iobus.default::total            8                       # Cumulative packet size per connected requestor and responder (bytes)
system.pc.default_bus.power_state.pwrStateResidencyTicks::UNDEFINED 2420308666254500                       # Cumulative time (in ticks) in various power states
system.pc.default_bus.reqLayer0.occupancy        18000                       # Layer occupancy (ticks)
system.pc.default_bus.reqLayer0.utilization          0.0                       # Layer utilization (%)
system.pc.default_bus.respLayer0.occupancy        12000                       # Layer occupancy (ticks)
system.pc.default_bus.respLayer0.utilization          0.0                       # Layer utilization (%)
system.pc.empty_isa.power_state.pwrStateResidencyTicks::UNDEFINED 2420308666254500                       # Cumulative time (in ticks) in various power states
system.pc.fake_com_2.power_state.pwrStateResidencyTicks::UNDEFINED 2420308666254500                       # Cumulative time (in ticks) in various power states
system.pc.fake_com_3.power_state.pwrStateResidencyTicks::UNDEFINED 2420308666254500                       # Cumulative time (in ticks) in various power states
system.pc.fake_com_4.power_state.pwrStateResidencyTicks::UNDEFINED 2420308666254500                       # Cumulative time (in ticks) in various power states
system.pc.fake_floppy.power_state.pwrStateResidencyTicks::UNDEFINED 2420308666254500                       # Cumulative time (in ticks) in various power states
system.pc.pci_host.power_state.pwrStateResidencyTicks::UNDEFINED 2420308666254500                       # Cumulative time (in ticks) in various power states
system.pc.south_bridge.cmos.power_state.pwrStateResidencyTicks::UNDEFINED 2420308666254500                       # Cumulative time (in ticks) in various power states
system.pc.south_bridge.dma1.power_state.pwrStateResidencyTicks::UNDEFINED 2420308666254500                       # Cumulative time (in ticks) in various power states
system.pc.south_bridge.ide.disks.IdeDisk.dmaReadFullPages           53                       # Number of full page size DMA reads (not PRD).
system.pc.south_bridge.ide.disks.IdeDisk.dmaReadBytes       217088                       # Number of bytes transfered via DMA reads (not PRD).
system.pc.south_bridge.ide.disks.IdeDisk.dmaReadTxs           53                       # Number of DMA read transactions (not PRD).
system.pc.south_bridge.ide.disks.IdeDisk.dmaWriteFullPages          771                       # Number of full page size DMA writes.
system.pc.south_bridge.ide.disks.IdeDisk.dmaWriteBytes      3160064                       # Number of bytes transfered via DMA writes.
system.pc.south_bridge.ide.disks.IdeDisk.dmaWriteTxs          773                       # Number of DMA write transactions.
system.pc.south_bridge.ide.power_state.pwrStateResidencyTicks::UNDEFINED 2420308666254500                       # Cumulative time (in ticks) in various power states
system.pc.south_bridge.io_apic.power_state.pwrStateResidencyTicks::UNDEFINED 2420308666254500                       # Cumulative time (in ticks) in various power states
system.pc.south_bridge.keyboard.power_state.pwrStateResidencyTicks::UNDEFINED 2420308666254500                       # Cumulative time (in ticks) in various power states
system.pc.south_bridge.pic1.power_state.pwrStateResidencyTicks::UNDEFINED 2420308666254500                       # Cumulative time (in ticks) in various power states
system.pc.south_bridge.pic2.power_state.pwrStateResidencyTicks::UNDEFINED 2420308666254500                       # Cumulative time (in ticks) in various power states
system.pc.south_bridge.pit.power_state.pwrStateResidencyTicks::UNDEFINED 2420308666254500                       # Cumulative time (in ticks) in various power states
system.pc.south_bridge.speaker.power_state.pwrStateResidencyTicks::UNDEFINED 2420308666254500                       # Cumulative time (in ticks) in various power states
system.voltage_domain.voltage                       1                       # Voltage in Volts
system.workload.inst.arm                            0                       # number of arm instructions executed
system.workload.inst.quiesce                        0                       # number of quiesce instructions executed

---------- End Simulation Statistics   ----------
