
---------- Begin Simulation Statistics ----------
simSeconds                                   7.159278                       # Number of seconds simulated (Second)
simTicks                                 7159278478500                       # Number of ticks simulated (Tick)
finalTick                                7159278478500                       # Number of ticks from beginning of simulation (restored from checkpoints and never reset) (Tick)
simFreq                                  1000000000000                       # The number of ticks per simulated second ((Tick/Second))
hostSeconds                                   1498.67                       # Real time elapsed on the host (Second)
hostTickRate                               4777101426                       # The number of ticks simulated per host second (ticks/s) ((Tick/Second))
hostMemory                                    2723292                       # Number of bytes of host memory used (Byte)
simInsts                                     71438752                       # Number of instructions simulated (Count)
simOps                                       71578181                       # Number of ops (including micro ops) simulated (Count)
hostInstRate                                    47668                       # Simulator instruction rate (inst/s) ((Count/Second))
hostOpRate                                      47761                       # Simulator op (including micro ops) rate (op/s) ((Count/Second))
system.clk_domain.clock                          1000                       # Clock period in ticks (Tick)
system.cpu_cluster.clk_domain.clock               250                       # Clock period in ticks (Tick)
system.cpu_cluster.cpus0.numCycles        28637113914                       # Number of cpu cycles simulated (Cycle)
system.cpu_cluster.cpus0.cpi               400.863269                       # CPI: cycles per instruction (core level) ((Cycle/Count))
system.cpu_cluster.cpus0.ipc                 0.002495                       # IPC: instructions per cycle (core level) ((Count/Cycle))
system.cpu_cluster.cpus0.numWorkItemsStarted            0                       # Number of work items this cpu started (Count)
system.cpu_cluster.cpus0.numWorkItemsCompleted            0                       # Number of work items this cpu completed (Count)
system.cpu_cluster.cpus0.branchPred.lookups       428072                       # Number of BP lookups (Count)
system.cpu_cluster.cpus0.branchPred.condPredicted       300115                       # Number of conditional branches predicted (Count)
system.cpu_cluster.cpus0.branchPred.condIncorrect         2322                       # Number of conditional branches incorrect (Count)
system.cpu_cluster.cpus0.branchPred.BTBLookups       160746                       # Number of BTB lookups (Count)
system.cpu_cluster.cpus0.branchPred.BTBUpdates         2035                       # Number of BTB updates (Count)
system.cpu_cluster.cpus0.branchPred.BTBHits       157539                       # Number of BTB hits (Count)
system.cpu_cluster.cpus0.branchPred.BTBHitRatio     0.980049                       # BTB Hit Ratio (Ratio)
system.cpu_cluster.cpus0.branchPred.RASUsed         2549                       # Number of times the RAS was used to get a target. (Count)
system.cpu_cluster.cpus0.branchPred.RASIncorrect           24                       # Number of incorrect RAS predictions. (Count)
system.cpu_cluster.cpus0.branchPred.indirectLookups           56                       # Number of indirect predictor lookups. (Count)
system.cpu_cluster.cpus0.branchPred.indirectHits           23                       # Number of indirect target hits. (Count)
system.cpu_cluster.cpus0.branchPred.indirectMisses           33                       # Number of indirect misses. (Count)
system.cpu_cluster.cpus0.branchPred.indirectMispredicted            7                       # Number of mispredicted indirect branches. (Count)
system.cpu_cluster.cpus0.commitStats0.numInsts     71438608                       # Number of instructions committed (thread level) (Count)
system.cpu_cluster.cpus0.commitStats0.numOps     71578034                       # Number of ops (including micro ops) committed (thread level) (Count)
system.cpu_cluster.cpus0.commitStats0.numInstsNotNOP            0                       # Number of instructions committed excluding NOPs or prefetches (Count)
system.cpu_cluster.cpus0.commitStats0.numOpsNotNOP            0                       # Number of Ops (including micro ops) Simulated (Count)
system.cpu_cluster.cpus0.commitStats0.cpi   400.863269                       # CPI: cycles per instruction (thread level) ((Cycle/Count))
system.cpu_cluster.cpus0.commitStats0.ipc     0.002495                       # IPC: instructions per cycle (thread level) ((Count/Cycle))
system.cpu_cluster.cpus0.commitStats0.numMemRefs            0                       # Number of memory references committed (Count)
system.cpu_cluster.cpus0.commitStats0.numFpInsts            0                       # Number of float instructions (Count)
system.cpu_cluster.cpus0.commitStats0.numIntInsts            0                       # Number of integer instructions (Count)
system.cpu_cluster.cpus0.commitStats0.numLoadInsts            0                       # Number of load instructions (Count)
system.cpu_cluster.cpus0.commitStats0.numStoreInsts            0                       # Number of store instructions (Count)
system.cpu_cluster.cpus0.commitStats0.numVecInsts            0                       # Number of vector instructions (Count)
system.cpu_cluster.cpus0.commitStats0.committedInstType::No_OpClass          315      0.00%      0.00% # Class of committed instruction. (Count)
system.cpu_cluster.cpus0.commitStats0.committedInstType::IntAlu     71157968     99.41%     99.41% # Class of committed instruction. (Count)
system.cpu_cluster.cpus0.commitStats0.committedInstType::IntMult          201      0.00%     99.41% # Class of committed instruction. (Count)
system.cpu_cluster.cpus0.commitStats0.committedInstType::IntDiv            0      0.00%     99.41% # Class of committed instruction. (Count)
system.cpu_cluster.cpus0.commitStats0.committedInstType::FloatAdd            0      0.00%     99.41% # Class of committed instruction. (Count)
system.cpu_cluster.cpus0.commitStats0.committedInstType::FloatCmp            0      0.00%     99.41% # Class of committed instruction. (Count)
system.cpu_cluster.cpus0.commitStats0.committedInstType::FloatCvt            0      0.00%     99.41% # Class of committed instruction. (Count)
system.cpu_cluster.cpus0.commitStats0.committedInstType::FloatMult            0      0.00%     99.41% # Class of committed instruction. (Count)
system.cpu_cluster.cpus0.commitStats0.committedInstType::FloatMultAcc            0      0.00%     99.41% # Class of committed instruction. (Count)
system.cpu_cluster.cpus0.commitStats0.committedInstType::FloatDiv            0      0.00%     99.41% # Class of committed instruction. (Count)
system.cpu_cluster.cpus0.commitStats0.committedInstType::FloatMisc            0      0.00%     99.41% # Class of committed instruction. (Count)
system.cpu_cluster.cpus0.commitStats0.committedInstType::FloatSqrt            0      0.00%     99.41% # Class of committed instruction. (Count)
system.cpu_cluster.cpus0.commitStats0.committedInstType::SimdAdd            0      0.00%     99.41% # Class of committed instruction. (Count)
system.cpu_cluster.cpus0.commitStats0.committedInstType::SimdAddAcc            0      0.00%     99.41% # Class of committed instruction. (Count)
system.cpu_cluster.cpus0.commitStats0.committedInstType::SimdAlu            0      0.00%     99.41% # Class of committed instruction. (Count)
system.cpu_cluster.cpus0.commitStats0.committedInstType::SimdCmp            0      0.00%     99.41% # Class of committed instruction. (Count)
system.cpu_cluster.cpus0.commitStats0.committedInstType::SimdCvt            0      0.00%     99.41% # Class of committed instruction. (Count)
system.cpu_cluster.cpus0.commitStats0.committedInstType::SimdMisc            0      0.00%     99.41% # Class of committed instruction. (Count)
system.cpu_cluster.cpus0.commitStats0.committedInstType::SimdMult            0      0.00%     99.41% # Class of committed instruction. (Count)
system.cpu_cluster.cpus0.commitStats0.committedInstType::SimdMultAcc            0      0.00%     99.41% # Class of committed instruction. (Count)
system.cpu_cluster.cpus0.commitStats0.committedInstType::SimdMatMultAcc            0      0.00%     99.41% # Class of committed instruction. (Count)
system.cpu_cluster.cpus0.commitStats0.committedInstType::SimdShift            0      0.00%     99.41% # Class of committed instruction. (Count)
system.cpu_cluster.cpus0.commitStats0.committedInstType::SimdShiftAcc            0      0.00%     99.41% # Class of committed instruction. (Count)
system.cpu_cluster.cpus0.commitStats0.committedInstType::SimdDiv            0      0.00%     99.41% # Class of committed instruction. (Count)
system.cpu_cluster.cpus0.commitStats0.committedInstType::SimdSqrt            0      0.00%     99.41% # Class of committed instruction. (Count)
system.cpu_cluster.cpus0.commitStats0.committedInstType::SimdFloatAdd            0      0.00%     99.41% # Class of committed instruction. (Count)
system.cpu_cluster.cpus0.commitStats0.committedInstType::SimdFloatAlu            0      0.00%     99.41% # Class of committed instruction. (Count)
system.cpu_cluster.cpus0.commitStats0.committedInstType::SimdFloatCmp            0      0.00%     99.41% # Class of committed instruction. (Count)
system.cpu_cluster.cpus0.commitStats0.committedInstType::SimdFloatCvt            0      0.00%     99.41% # Class of committed instruction. (Count)
system.cpu_cluster.cpus0.commitStats0.committedInstType::SimdFloatDiv            0      0.00%     99.41% # Class of committed instruction. (Count)
system.cpu_cluster.cpus0.commitStats0.committedInstType::SimdFloatMisc            0      0.00%     99.41% # Class of committed instruction. (Count)
system.cpu_cluster.cpus0.commitStats0.committedInstType::SimdFloatMult            0      0.00%     99.41% # Class of committed instruction. (Count)
system.cpu_cluster.cpus0.commitStats0.committedInstType::SimdFloatMultAcc            0      0.00%     99.41% # Class of committed instruction. (Count)
system.cpu_cluster.cpus0.commitStats0.committedInstType::SimdFloatMatMultAcc            0      0.00%     99.41% # Class of committed instruction. (Count)
system.cpu_cluster.cpus0.commitStats0.committedInstType::SimdFloatSqrt            0      0.00%     99.41% # Class of committed instruction. (Count)
system.cpu_cluster.cpus0.commitStats0.committedInstType::SimdReduceAdd            0      0.00%     99.41% # Class of committed instruction. (Count)
system.cpu_cluster.cpus0.commitStats0.committedInstType::SimdReduceAlu            0      0.00%     99.41% # Class of committed instruction. (Count)
system.cpu_cluster.cpus0.commitStats0.committedInstType::SimdReduceCmp            0      0.00%     99.41% # Class of committed instruction. (Count)
system.cpu_cluster.cpus0.commitStats0.committedInstType::SimdFloatReduceAdd            0      0.00%     99.41% # Class of committed instruction. (Count)
system.cpu_cluster.cpus0.commitStats0.committedInstType::SimdFloatReduceCmp            0      0.00%     99.41% # Class of committed instruction. (Count)
system.cpu_cluster.cpus0.commitStats0.committedInstType::SimdAes            0      0.00%     99.41% # Class of committed instruction. (Count)
system.cpu_cluster.cpus0.commitStats0.committedInstType::SimdAesMix            0      0.00%     99.41% # Class of committed instruction. (Count)
system.cpu_cluster.cpus0.commitStats0.committedInstType::SimdSha1Hash            0      0.00%     99.41% # Class of committed instruction. (Count)
system.cpu_cluster.cpus0.commitStats0.committedInstType::SimdSha1Hash2            0      0.00%     99.41% # Class of committed instruction. (Count)
system.cpu_cluster.cpus0.commitStats0.committedInstType::SimdSha256Hash            0      0.00%     99.41% # Class of committed instruction. (Count)
system.cpu_cluster.cpus0.commitStats0.committedInstType::SimdSha256Hash2            0      0.00%     99.41% # Class of committed instruction. (Count)
system.cpu_cluster.cpus0.commitStats0.committedInstType::SimdShaSigma2            0      0.00%     99.41% # Class of committed instruction. (Count)
system.cpu_cluster.cpus0.commitStats0.committedInstType::SimdShaSigma3            0      0.00%     99.41% # Class of committed instruction. (Count)
system.cpu_cluster.cpus0.commitStats0.committedInstType::SimdPredAlu            0      0.00%     99.41% # Class of committed instruction. (Count)
system.cpu_cluster.cpus0.commitStats0.committedInstType::Matrix            0      0.00%     99.41% # Class of committed instruction. (Count)
system.cpu_cluster.cpus0.commitStats0.committedInstType::MatrixMov            0      0.00%     99.41% # Class of committed instruction. (Count)
system.cpu_cluster.cpus0.commitStats0.committedInstType::MatrixOP            0      0.00%     99.41% # Class of committed instruction. (Count)
system.cpu_cluster.cpus0.commitStats0.committedInstType::MemRead       271569      0.38%     99.79% # Class of committed instruction. (Count)
system.cpu_cluster.cpus0.commitStats0.committedInstType::MemWrite       147981      0.21%    100.00% # Class of committed instruction. (Count)
system.cpu_cluster.cpus0.commitStats0.committedInstType::FloatMemRead            0      0.00%    100.00% # Class of committed instruction. (Count)
system.cpu_cluster.cpus0.commitStats0.committedInstType::FloatMemWrite            0      0.00%    100.00% # Class of committed instruction. (Count)
system.cpu_cluster.cpus0.commitStats0.committedInstType::IprAccess            0      0.00%    100.00% # Class of committed instruction. (Count)
system.cpu_cluster.cpus0.commitStats0.committedInstType::InstPrefetch            0      0.00%    100.00% # Class of committed instruction. (Count)
system.cpu_cluster.cpus0.commitStats0.committedInstType::VectorUnitStrideLoad            0      0.00%    100.00% # Class of committed instruction. (Count)
system.cpu_cluster.cpus0.commitStats0.committedInstType::VectorUnitStrideStore            0      0.00%    100.00% # Class of committed instruction. (Count)
system.cpu_cluster.cpus0.commitStats0.committedInstType::VectorUnitStrideMaskLoad            0      0.00%    100.00% # Class of committed instruction. (Count)
system.cpu_cluster.cpus0.commitStats0.committedInstType::VectorUnitStrideMaskStore            0      0.00%    100.00% # Class of committed instruction. (Count)
system.cpu_cluster.cpus0.commitStats0.committedInstType::VectorStridedLoad            0      0.00%    100.00% # Class of committed instruction. (Count)
system.cpu_cluster.cpus0.commitStats0.committedInstType::VectorStridedStore            0      0.00%    100.00% # Class of committed instruction. (Count)
system.cpu_cluster.cpus0.commitStats0.committedInstType::VectorIndexedLoad            0      0.00%    100.00% # Class of committed instruction. (Count)
system.cpu_cluster.cpus0.commitStats0.committedInstType::VectorIndexedStore            0      0.00%    100.00% # Class of committed instruction. (Count)
system.cpu_cluster.cpus0.commitStats0.committedInstType::VectorUnitStrideFaultOnlyFirstLoad            0      0.00%    100.00% # Class of committed instruction. (Count)
system.cpu_cluster.cpus0.commitStats0.committedInstType::VectorWholeRegisterLoad            0      0.00%    100.00% # Class of committed instruction. (Count)
system.cpu_cluster.cpus0.commitStats0.committedInstType::VectorWholeRegisterStore            0      0.00%    100.00% # Class of committed instruction. (Count)
system.cpu_cluster.cpus0.commitStats0.committedInstType::VectorIntegerArith            0      0.00%    100.00% # Class of committed instruction. (Count)
system.cpu_cluster.cpus0.commitStats0.committedInstType::VectorFloatArith            0      0.00%    100.00% # Class of committed instruction. (Count)
system.cpu_cluster.cpus0.commitStats0.committedInstType::VectorFloatConvert            0      0.00%    100.00% # Class of committed instruction. (Count)
system.cpu_cluster.cpus0.commitStats0.committedInstType::VectorIntegerReduce            0      0.00%    100.00% # Class of committed instruction. (Count)
system.cpu_cluster.cpus0.commitStats0.committedInstType::VectorFloatReduce            0      0.00%    100.00% # Class of committed instruction. (Count)
system.cpu_cluster.cpus0.commitStats0.committedInstType::VectorMisc            0      0.00%    100.00% # Class of committed instruction. (Count)
system.cpu_cluster.cpus0.commitStats0.committedInstType::VectorIntegerExtension            0      0.00%    100.00% # Class of committed instruction. (Count)
system.cpu_cluster.cpus0.commitStats0.committedInstType::VectorConfig            0      0.00%    100.00% # Class of committed instruction. (Count)
system.cpu_cluster.cpus0.commitStats0.committedInstType::total     71578034                       # Class of committed instruction. (Count)
system.cpu_cluster.cpus0.dcache.demandHits::cpu_cluster.cpus0.data       329890                       # number of demand (read+write) hits (Count)
system.cpu_cluster.cpus0.dcache.demandHits::total       329890                       # number of demand (read+write) hits (Count)
system.cpu_cluster.cpus0.dcache.overallHits::cpu_cluster.cpus0.data       329891                       # number of overall hits (Count)
system.cpu_cluster.cpus0.dcache.overallHits::total       329891                       # number of overall hits (Count)
system.cpu_cluster.cpus0.dcache.demandMisses::cpu_cluster.cpus0.data       106200                       # number of demand (read+write) misses (Count)
system.cpu_cluster.cpus0.dcache.demandMisses::total       106200                       # number of demand (read+write) misses (Count)
system.cpu_cluster.cpus0.dcache.overallMisses::cpu_cluster.cpus0.data       106201                       # number of overall misses (Count)
system.cpu_cluster.cpus0.dcache.overallMisses::total       106201                       # number of overall misses (Count)
system.cpu_cluster.cpus0.dcache.demandMissLatency::cpu_cluster.cpus0.data   6652930250                       # number of demand (read+write) miss ticks (Tick)
system.cpu_cluster.cpus0.dcache.demandMissLatency::total   6652930250                       # number of demand (read+write) miss ticks (Tick)
system.cpu_cluster.cpus0.dcache.overallMissLatency::cpu_cluster.cpus0.data   6652930250                       # number of overall miss ticks (Tick)
system.cpu_cluster.cpus0.dcache.overallMissLatency::total   6652930250                       # number of overall miss ticks (Tick)
system.cpu_cluster.cpus0.dcache.demandAccesses::cpu_cluster.cpus0.data       436090                       # number of demand (read+write) accesses (Count)
system.cpu_cluster.cpus0.dcache.demandAccesses::total       436090                       # number of demand (read+write) accesses (Count)
system.cpu_cluster.cpus0.dcache.overallAccesses::cpu_cluster.cpus0.data       436092                       # number of overall (read+write) accesses (Count)
system.cpu_cluster.cpus0.dcache.overallAccesses::total       436092                       # number of overall (read+write) accesses (Count)
system.cpu_cluster.cpus0.dcache.demandMissRate::cpu_cluster.cpus0.data     0.243528                       # miss rate for demand accesses (Ratio)
system.cpu_cluster.cpus0.dcache.demandMissRate::total     0.243528                       # miss rate for demand accesses (Ratio)
system.cpu_cluster.cpus0.dcache.overallMissRate::cpu_cluster.cpus0.data     0.243529                       # miss rate for overall accesses (Ratio)
system.cpu_cluster.cpus0.dcache.overallMissRate::total     0.243529                       # miss rate for overall accesses (Ratio)
system.cpu_cluster.cpus0.dcache.demandAvgMissLatency::cpu_cluster.cpus0.data 62645.294256                       # average overall miss latency in ticks ((Tick/Count))
system.cpu_cluster.cpus0.dcache.demandAvgMissLatency::total 62645.294256                       # average overall miss latency in ticks ((Tick/Count))
system.cpu_cluster.cpus0.dcache.overallAvgMissLatency::cpu_cluster.cpus0.data 62644.704381                       # average overall miss latency ((Tick/Count))
system.cpu_cluster.cpus0.dcache.overallAvgMissLatency::total 62644.704381                       # average overall miss latency ((Tick/Count))
system.cpu_cluster.cpus0.dcache.blockedCycles::no_mshrs        77693                       # number of cycles access was blocked (Cycle)
system.cpu_cluster.cpus0.dcache.blockedCycles::no_targets            0                       # number of cycles access was blocked (Cycle)
system.cpu_cluster.cpus0.dcache.blockedCauses::no_mshrs          449                       # number of times access was blocked (Count)
system.cpu_cluster.cpus0.dcache.blockedCauses::no_targets            0                       # number of times access was blocked (Count)
system.cpu_cluster.cpus0.dcache.avgBlocked::no_mshrs   173.035635                       # average number of cycles each access was blocked ((Cycle/Count))
system.cpu_cluster.cpus0.dcache.avgBlocked::no_targets          nan                       # average number of cycles each access was blocked ((Cycle/Count))
system.cpu_cluster.cpus0.dcache.writebacks::writebacks        46129                       # number of writebacks (Count)
system.cpu_cluster.cpus0.dcache.writebacks::total        46129                       # number of writebacks (Count)
system.cpu_cluster.cpus0.dcache.demandMshrHits::cpu_cluster.cpus0.data        36756                       # number of demand (read+write) MSHR hits (Count)
system.cpu_cluster.cpus0.dcache.demandMshrHits::total        36756                       # number of demand (read+write) MSHR hits (Count)
system.cpu_cluster.cpus0.dcache.overallMshrHits::cpu_cluster.cpus0.data        36756                       # number of overall MSHR hits (Count)
system.cpu_cluster.cpus0.dcache.overallMshrHits::total        36756                       # number of overall MSHR hits (Count)
system.cpu_cluster.cpus0.dcache.demandMshrMisses::cpu_cluster.cpus0.data        69444                       # number of demand (read+write) MSHR misses (Count)
system.cpu_cluster.cpus0.dcache.demandMshrMisses::total        69444                       # number of demand (read+write) MSHR misses (Count)
system.cpu_cluster.cpus0.dcache.overallMshrMisses::cpu_cluster.cpus0.data        69445                       # number of overall MSHR misses (Count)
system.cpu_cluster.cpus0.dcache.overallMshrMisses::cpu_cluster.cpus0.dcache.prefetcher        26370                       # number of overall MSHR misses (Count)
system.cpu_cluster.cpus0.dcache.overallMshrMisses::total        95815                       # number of overall MSHR misses (Count)
system.cpu_cluster.cpus0.dcache.overallMshrUncacheable::cpu_cluster.cpus0.data           48                       # number of overall MSHR uncacheable misses (Count)
system.cpu_cluster.cpus0.dcache.overallMshrUncacheable::total           48                       # number of overall MSHR uncacheable misses (Count)
system.cpu_cluster.cpus0.dcache.demandMshrMissLatency::cpu_cluster.cpus0.data   4370829000                       # number of demand (read+write) MSHR miss ticks (Tick)
system.cpu_cluster.cpus0.dcache.demandMshrMissLatency::total   4370829000                       # number of demand (read+write) MSHR miss ticks (Tick)
system.cpu_cluster.cpus0.dcache.overallMshrMissLatency::cpu_cluster.cpus0.data   4370914000                       # number of overall MSHR miss ticks (Tick)
system.cpu_cluster.cpus0.dcache.overallMshrMissLatency::cpu_cluster.cpus0.dcache.prefetcher   1700478661                       # number of overall MSHR miss ticks (Tick)
system.cpu_cluster.cpus0.dcache.overallMshrMissLatency::total   6071392661                       # number of overall MSHR miss ticks (Tick)
system.cpu_cluster.cpus0.dcache.overallMshrUncacheableLatency::cpu_cluster.cpus0.data       710000                       # number of overall MSHR uncacheable ticks (Tick)
system.cpu_cluster.cpus0.dcache.overallMshrUncacheableLatency::total       710000                       # number of overall MSHR uncacheable ticks (Tick)
system.cpu_cluster.cpus0.dcache.demandMshrMissRate::cpu_cluster.cpus0.data     0.159242                       # mshr miss ratio for demand accesses (Ratio)
system.cpu_cluster.cpus0.dcache.demandMshrMissRate::total     0.159242                       # mshr miss ratio for demand accesses (Ratio)
system.cpu_cluster.cpus0.dcache.overallMshrMissRate::cpu_cluster.cpus0.data     0.159244                       # mshr miss ratio for overall accesses (Ratio)
system.cpu_cluster.cpus0.dcache.overallMshrMissRate::cpu_cluster.cpus0.dcache.prefetcher          inf                       # mshr miss ratio for overall accesses (Ratio)
system.cpu_cluster.cpus0.dcache.overallMshrMissRate::total     0.219713                       # mshr miss ratio for overall accesses (Ratio)
system.cpu_cluster.cpus0.dcache.demandAvgMshrMissLatency::cpu_cluster.cpus0.data 62940.340418                       # average overall mshr miss latency ((Tick/Count))
system.cpu_cluster.cpus0.dcache.demandAvgMshrMissLatency::total 62940.340418                       # average overall mshr miss latency ((Tick/Count))
system.cpu_cluster.cpus0.dcache.overallAvgMshrMissLatency::cpu_cluster.cpus0.data 62940.658075                       # average overall mshr miss latency ((Tick/Count))
system.cpu_cluster.cpus0.dcache.overallAvgMshrMissLatency::cpu_cluster.cpus0.dcache.prefetcher 64485.349298                       # average overall mshr miss latency ((Tick/Count))
system.cpu_cluster.cpus0.dcache.overallAvgMshrMissLatency::total 63365.784700                       # average overall mshr miss latency ((Tick/Count))
system.cpu_cluster.cpus0.dcache.overallAvgMshrUncacheableLatency::cpu_cluster.cpus0.data 14791.666667                       # average overall mshr uncacheable latency ((Tick/Count))
system.cpu_cluster.cpus0.dcache.overallAvgMshrUncacheableLatency::total 14791.666667                       # average overall mshr uncacheable latency ((Tick/Count))
system.cpu_cluster.cpus0.dcache.replacements        95299                       # number of replacements (Count)
system.cpu_cluster.cpus0.dcache.CleanInvalidReq.missLatency::cpu_cluster.cpus0.data        57250                       # number of CleanInvalidReq miss ticks (Tick)
system.cpu_cluster.cpus0.dcache.CleanInvalidReq.missLatency::total        57250                       # number of CleanInvalidReq miss ticks (Tick)
system.cpu_cluster.cpus0.dcache.CleanInvalidReq.avgMissLatency::cpu_cluster.cpus0.data          inf                       # average CleanInvalidReq miss latency ((Tick/Count))
system.cpu_cluster.cpus0.dcache.CleanInvalidReq.avgMissLatency::total          inf                       # average CleanInvalidReq miss latency ((Tick/Count))
system.cpu_cluster.cpus0.dcache.CleanInvalidReq.mshrMisses::cpu_cluster.cpus0.data            8                       # number of CleanInvalidReq MSHR misses (Count)
system.cpu_cluster.cpus0.dcache.CleanInvalidReq.mshrMisses::total            8                       # number of CleanInvalidReq MSHR misses (Count)
system.cpu_cluster.cpus0.dcache.CleanInvalidReq.mshrMissLatency::cpu_cluster.cpus0.data       126750                       # number of CleanInvalidReq MSHR miss ticks (Tick)
system.cpu_cluster.cpus0.dcache.CleanInvalidReq.mshrMissLatency::total       126750                       # number of CleanInvalidReq MSHR miss ticks (Tick)
system.cpu_cluster.cpus0.dcache.CleanInvalidReq.mshrMissRate::cpu_cluster.cpus0.data          inf                       # mshr miss rate for CleanInvalidReq accesses (Ratio)
system.cpu_cluster.cpus0.dcache.CleanInvalidReq.mshrMissRate::total          inf                       # mshr miss rate for CleanInvalidReq accesses (Ratio)
system.cpu_cluster.cpus0.dcache.CleanInvalidReq.avgMshrMissLatency::cpu_cluster.cpus0.data 15843.750000                       # average CleanInvalidReq mshr miss latency ((Tick/Count))
system.cpu_cluster.cpus0.dcache.CleanInvalidReq.avgMshrMissLatency::total 15843.750000                       # average CleanInvalidReq mshr miss latency ((Tick/Count))
system.cpu_cluster.cpus0.dcache.HardPFReq.mshrMisses::cpu_cluster.cpus0.dcache.prefetcher        26370                       # number of HardPFReq MSHR misses (Count)
system.cpu_cluster.cpus0.dcache.HardPFReq.mshrMisses::total        26370                       # number of HardPFReq MSHR misses (Count)
system.cpu_cluster.cpus0.dcache.HardPFReq.mshrMissLatency::cpu_cluster.cpus0.dcache.prefetcher   1700478661                       # number of HardPFReq MSHR miss ticks (Tick)
system.cpu_cluster.cpus0.dcache.HardPFReq.mshrMissLatency::total   1700478661                       # number of HardPFReq MSHR miss ticks (Tick)
system.cpu_cluster.cpus0.dcache.HardPFReq.mshrMissRate::cpu_cluster.cpus0.dcache.prefetcher          inf                       # mshr miss rate for HardPFReq accesses (Ratio)
system.cpu_cluster.cpus0.dcache.HardPFReq.mshrMissRate::total          inf                       # mshr miss rate for HardPFReq accesses (Ratio)
system.cpu_cluster.cpus0.dcache.HardPFReq.avgMshrMissLatency::cpu_cluster.cpus0.dcache.prefetcher 64485.349298                       # average HardPFReq mshr miss latency ((Tick/Count))
system.cpu_cluster.cpus0.dcache.HardPFReq.avgMshrMissLatency::total 64485.349298                       # average HardPFReq mshr miss latency ((Tick/Count))
system.cpu_cluster.cpus0.dcache.InvalidateReq.mshrMisses::cpu_cluster.cpus0.data          321                       # number of InvalidateReq MSHR misses (Count)
system.cpu_cluster.cpus0.dcache.InvalidateReq.mshrMisses::total          321                       # number of InvalidateReq MSHR misses (Count)
system.cpu_cluster.cpus0.dcache.InvalidateReq.mshrMissLatency::cpu_cluster.cpus0.data      4574250                       # number of InvalidateReq MSHR miss ticks (Tick)
system.cpu_cluster.cpus0.dcache.InvalidateReq.mshrMissLatency::total      4574250                       # number of InvalidateReq MSHR miss ticks (Tick)
system.cpu_cluster.cpus0.dcache.InvalidateReq.mshrMissRate::cpu_cluster.cpus0.data          inf                       # mshr miss rate for InvalidateReq accesses (Ratio)
system.cpu_cluster.cpus0.dcache.InvalidateReq.mshrMissRate::total          inf                       # mshr miss rate for InvalidateReq accesses (Ratio)
system.cpu_cluster.cpus0.dcache.InvalidateReq.avgMshrMissLatency::cpu_cluster.cpus0.data        14250                       # average InvalidateReq mshr miss latency ((Tick/Count))
system.cpu_cluster.cpus0.dcache.InvalidateReq.avgMshrMissLatency::total        14250                       # average InvalidateReq mshr miss latency ((Tick/Count))
system.cpu_cluster.cpus0.dcache.LoadLockedReq.hits::cpu_cluster.cpus0.data            1                       # number of LoadLockedReq hits (Count)
system.cpu_cluster.cpus0.dcache.LoadLockedReq.hits::total            1                       # number of LoadLockedReq hits (Count)
system.cpu_cluster.cpus0.dcache.LoadLockedReq.misses::cpu_cluster.cpus0.data            1                       # number of LoadLockedReq misses (Count)
system.cpu_cluster.cpus0.dcache.LoadLockedReq.misses::total            1                       # number of LoadLockedReq misses (Count)
system.cpu_cluster.cpus0.dcache.LoadLockedReq.missLatency::cpu_cluster.cpus0.data        84500                       # number of LoadLockedReq miss ticks (Tick)
system.cpu_cluster.cpus0.dcache.LoadLockedReq.missLatency::total        84500                       # number of LoadLockedReq miss ticks (Tick)
system.cpu_cluster.cpus0.dcache.LoadLockedReq.accesses::cpu_cluster.cpus0.data            2                       # number of LoadLockedReq accesses(hits+misses) (Count)
system.cpu_cluster.cpus0.dcache.LoadLockedReq.accesses::total            2                       # number of LoadLockedReq accesses(hits+misses) (Count)
system.cpu_cluster.cpus0.dcache.LoadLockedReq.missRate::cpu_cluster.cpus0.data     0.500000                       # miss rate for LoadLockedReq accesses (Ratio)
system.cpu_cluster.cpus0.dcache.LoadLockedReq.missRate::total     0.500000                       # miss rate for LoadLockedReq accesses (Ratio)
system.cpu_cluster.cpus0.dcache.LoadLockedReq.avgMissLatency::cpu_cluster.cpus0.data        84500                       # average LoadLockedReq miss latency ((Tick/Count))
system.cpu_cluster.cpus0.dcache.LoadLockedReq.avgMissLatency::total        84500                       # average LoadLockedReq miss latency ((Tick/Count))
system.cpu_cluster.cpus0.dcache.LoadLockedReq.mshrHits::cpu_cluster.cpus0.data            1                       # number of LoadLockedReq MSHR hits (Count)
system.cpu_cluster.cpus0.dcache.LoadLockedReq.mshrHits::total            1                       # number of LoadLockedReq MSHR hits (Count)
system.cpu_cluster.cpus0.dcache.ReadReq.hits::cpu_cluster.cpus0.data       247524                       # number of ReadReq hits (Count)
system.cpu_cluster.cpus0.dcache.ReadReq.hits::total       247524                       # number of ReadReq hits (Count)
system.cpu_cluster.cpus0.dcache.ReadReq.misses::cpu_cluster.cpus0.data        40948                       # number of ReadReq misses (Count)
system.cpu_cluster.cpus0.dcache.ReadReq.misses::total        40948                       # number of ReadReq misses (Count)
system.cpu_cluster.cpus0.dcache.ReadReq.missLatency::cpu_cluster.cpus0.data   2613191750                       # number of ReadReq miss ticks (Tick)
system.cpu_cluster.cpus0.dcache.ReadReq.missLatency::total   2613191750                       # number of ReadReq miss ticks (Tick)
system.cpu_cluster.cpus0.dcache.ReadReq.accesses::cpu_cluster.cpus0.data       288472                       # number of ReadReq accesses(hits+misses) (Count)
system.cpu_cluster.cpus0.dcache.ReadReq.accesses::total       288472                       # number of ReadReq accesses(hits+misses) (Count)
system.cpu_cluster.cpus0.dcache.ReadReq.missRate::cpu_cluster.cpus0.data     0.141948                       # miss rate for ReadReq accesses (Ratio)
system.cpu_cluster.cpus0.dcache.ReadReq.missRate::total     0.141948                       # miss rate for ReadReq accesses (Ratio)
system.cpu_cluster.cpus0.dcache.ReadReq.avgMissLatency::cpu_cluster.cpus0.data 63817.323190                       # average ReadReq miss latency ((Tick/Count))
system.cpu_cluster.cpus0.dcache.ReadReq.avgMissLatency::total 63817.323190                       # average ReadReq miss latency ((Tick/Count))
system.cpu_cluster.cpus0.dcache.ReadReq.mshrHits::cpu_cluster.cpus0.data            3                       # number of ReadReq MSHR hits (Count)
system.cpu_cluster.cpus0.dcache.ReadReq.mshrHits::total            3                       # number of ReadReq MSHR hits (Count)
system.cpu_cluster.cpus0.dcache.ReadReq.mshrMisses::cpu_cluster.cpus0.data        40945                       # number of ReadReq MSHR misses (Count)
system.cpu_cluster.cpus0.dcache.ReadReq.mshrMisses::total        40945                       # number of ReadReq MSHR misses (Count)
system.cpu_cluster.cpus0.dcache.ReadReq.mshrUncacheable::cpu_cluster.cpus0.data           16                       # number of ReadReq MSHR uncacheable (Count)
system.cpu_cluster.cpus0.dcache.ReadReq.mshrUncacheable::total           16                       # number of ReadReq MSHR uncacheable (Count)
system.cpu_cluster.cpus0.dcache.ReadReq.mshrMissLatency::cpu_cluster.cpus0.data   2602833500                       # number of ReadReq MSHR miss ticks (Tick)
system.cpu_cluster.cpus0.dcache.ReadReq.mshrMissLatency::total   2602833500                       # number of ReadReq MSHR miss ticks (Tick)
system.cpu_cluster.cpus0.dcache.ReadReq.mshrUncacheableLatency::cpu_cluster.cpus0.data       710000                       # number of ReadReq MSHR uncacheable ticks (Tick)
system.cpu_cluster.cpus0.dcache.ReadReq.mshrUncacheableLatency::total       710000                       # number of ReadReq MSHR uncacheable ticks (Tick)
system.cpu_cluster.cpus0.dcache.ReadReq.mshrMissRate::cpu_cluster.cpus0.data     0.141938                       # mshr miss rate for ReadReq accesses (Ratio)
system.cpu_cluster.cpus0.dcache.ReadReq.mshrMissRate::total     0.141938                       # mshr miss rate for ReadReq accesses (Ratio)
system.cpu_cluster.cpus0.dcache.ReadReq.avgMshrMissLatency::cpu_cluster.cpus0.data 63569.019416                       # average ReadReq mshr miss latency ((Tick/Count))
system.cpu_cluster.cpus0.dcache.ReadReq.avgMshrMissLatency::total 63569.019416                       # average ReadReq mshr miss latency ((Tick/Count))
system.cpu_cluster.cpus0.dcache.ReadReq.avgMshrUncacheableLatency::cpu_cluster.cpus0.data        44375                       # average ReadReq mshr uncacheable latency ((Tick/Count))
system.cpu_cluster.cpus0.dcache.ReadReq.avgMshrUncacheableLatency::total        44375                       # average ReadReq mshr uncacheable latency ((Tick/Count))
system.cpu_cluster.cpus0.dcache.SoftPFExReq.hits::cpu_cluster.cpus0.data            1                       # number of SoftPFExReq hits (Count)
system.cpu_cluster.cpus0.dcache.SoftPFExReq.hits::total            1                       # number of SoftPFExReq hits (Count)
system.cpu_cluster.cpus0.dcache.SoftPFExReq.misses::cpu_cluster.cpus0.data            1                       # number of SoftPFExReq misses (Count)
system.cpu_cluster.cpus0.dcache.SoftPFExReq.misses::total            1                       # number of SoftPFExReq misses (Count)
system.cpu_cluster.cpus0.dcache.SoftPFExReq.accesses::cpu_cluster.cpus0.data            2                       # number of SoftPFExReq accesses(hits+misses) (Count)
system.cpu_cluster.cpus0.dcache.SoftPFExReq.accesses::total            2                       # number of SoftPFExReq accesses(hits+misses) (Count)
system.cpu_cluster.cpus0.dcache.SoftPFExReq.missRate::cpu_cluster.cpus0.data     0.500000                       # miss rate for SoftPFExReq accesses (Ratio)
system.cpu_cluster.cpus0.dcache.SoftPFExReq.missRate::total     0.500000                       # miss rate for SoftPFExReq accesses (Ratio)
system.cpu_cluster.cpus0.dcache.SoftPFExReq.mshrMisses::cpu_cluster.cpus0.data            1                       # number of SoftPFExReq MSHR misses (Count)
system.cpu_cluster.cpus0.dcache.SoftPFExReq.mshrMisses::total            1                       # number of SoftPFExReq MSHR misses (Count)
system.cpu_cluster.cpus0.dcache.SoftPFExReq.mshrMissLatency::cpu_cluster.cpus0.data        85000                       # number of SoftPFExReq MSHR miss ticks (Tick)
system.cpu_cluster.cpus0.dcache.SoftPFExReq.mshrMissLatency::total        85000                       # number of SoftPFExReq MSHR miss ticks (Tick)
system.cpu_cluster.cpus0.dcache.SoftPFExReq.mshrMissRate::cpu_cluster.cpus0.data     0.500000                       # mshr miss rate for SoftPFExReq accesses (Ratio)
system.cpu_cluster.cpus0.dcache.SoftPFExReq.mshrMissRate::total     0.500000                       # mshr miss rate for SoftPFExReq accesses (Ratio)
system.cpu_cluster.cpus0.dcache.SoftPFExReq.avgMshrMissLatency::cpu_cluster.cpus0.data        85000                       # average SoftPFExReq mshr miss latency ((Tick/Count))
system.cpu_cluster.cpus0.dcache.SoftPFExReq.avgMshrMissLatency::total        85000                       # average SoftPFExReq mshr miss latency ((Tick/Count))
system.cpu_cluster.cpus0.dcache.StoreCondReq.hits::cpu_cluster.cpus0.data            2                       # number of StoreCondReq hits (Count)
system.cpu_cluster.cpus0.dcache.StoreCondReq.hits::total            2                       # number of StoreCondReq hits (Count)
system.cpu_cluster.cpus0.dcache.StoreCondReq.accesses::cpu_cluster.cpus0.data            2                       # number of StoreCondReq accesses(hits+misses) (Count)
system.cpu_cluster.cpus0.dcache.StoreCondReq.accesses::total            2                       # number of StoreCondReq accesses(hits+misses) (Count)
system.cpu_cluster.cpus0.dcache.WriteLineReq.hits::cpu_cluster.cpus0.data            6                       # number of WriteLineReq hits (Count)
system.cpu_cluster.cpus0.dcache.WriteLineReq.hits::total            6                       # number of WriteLineReq hits (Count)
system.cpu_cluster.cpus0.dcache.WriteLineReq.misses::cpu_cluster.cpus0.data        17512                       # number of WriteLineReq misses (Count)
system.cpu_cluster.cpus0.dcache.WriteLineReq.misses::total        17512                       # number of WriteLineReq misses (Count)
system.cpu_cluster.cpus0.dcache.WriteLineReq.missLatency::cpu_cluster.cpus0.data   1120935500                       # number of WriteLineReq miss ticks (Tick)
system.cpu_cluster.cpus0.dcache.WriteLineReq.missLatency::total   1120935500                       # number of WriteLineReq miss ticks (Tick)
system.cpu_cluster.cpus0.dcache.WriteLineReq.accesses::cpu_cluster.cpus0.data        17518                       # number of WriteLineReq accesses(hits+misses) (Count)
system.cpu_cluster.cpus0.dcache.WriteLineReq.accesses::total        17518                       # number of WriteLineReq accesses(hits+misses) (Count)
system.cpu_cluster.cpus0.dcache.WriteLineReq.missRate::cpu_cluster.cpus0.data     0.999657                       # miss rate for WriteLineReq accesses (Ratio)
system.cpu_cluster.cpus0.dcache.WriteLineReq.missRate::total     0.999657                       # miss rate for WriteLineReq accesses (Ratio)
system.cpu_cluster.cpus0.dcache.WriteLineReq.avgMissLatency::cpu_cluster.cpus0.data 64009.564870                       # average WriteLineReq miss latency ((Tick/Count))
system.cpu_cluster.cpus0.dcache.WriteLineReq.avgMissLatency::total 64009.564870                       # average WriteLineReq miss latency ((Tick/Count))
system.cpu_cluster.cpus0.dcache.WriteLineReq.mshrHits::cpu_cluster.cpus0.data        17234                       # number of WriteLineReq MSHR hits (Count)
system.cpu_cluster.cpus0.dcache.WriteLineReq.mshrHits::total        17234                       # number of WriteLineReq MSHR hits (Count)
system.cpu_cluster.cpus0.dcache.WriteLineReq.mshrMisses::cpu_cluster.cpus0.data          278                       # number of WriteLineReq MSHR misses (Count)
system.cpu_cluster.cpus0.dcache.WriteLineReq.mshrMisses::total          278                       # number of WriteLineReq MSHR misses (Count)
system.cpu_cluster.cpus0.dcache.WriteLineReq.mshrMissLatency::cpu_cluster.cpus0.data      4102500                       # number of WriteLineReq MSHR miss ticks (Tick)
system.cpu_cluster.cpus0.dcache.WriteLineReq.mshrMissLatency::total      4102500                       # number of WriteLineReq MSHR miss ticks (Tick)
system.cpu_cluster.cpus0.dcache.WriteLineReq.mshrMissRate::cpu_cluster.cpus0.data     0.015869                       # mshr miss rate for WriteLineReq accesses (Ratio)
system.cpu_cluster.cpus0.dcache.WriteLineReq.mshrMissRate::total     0.015869                       # mshr miss rate for WriteLineReq accesses (Ratio)
system.cpu_cluster.cpus0.dcache.WriteLineReq.avgMshrMissLatency::cpu_cluster.cpus0.data 14757.194245                       # average WriteLineReq mshr miss latency ((Tick/Count))
system.cpu_cluster.cpus0.dcache.WriteLineReq.avgMshrMissLatency::total 14757.194245                       # average WriteLineReq mshr miss latency ((Tick/Count))
system.cpu_cluster.cpus0.dcache.WriteReq.hits::cpu_cluster.cpus0.data        82360                       # number of WriteReq hits (Count)
system.cpu_cluster.cpus0.dcache.WriteReq.hits::total        82360                       # number of WriteReq hits (Count)
system.cpu_cluster.cpus0.dcache.WriteReq.misses::cpu_cluster.cpus0.data        47740                       # number of WriteReq misses (Count)
system.cpu_cluster.cpus0.dcache.WriteReq.misses::total        47740                       # number of WriteReq misses (Count)
system.cpu_cluster.cpus0.dcache.WriteReq.missLatency::cpu_cluster.cpus0.data   2918803000                       # number of WriteReq miss ticks (Tick)
system.cpu_cluster.cpus0.dcache.WriteReq.missLatency::total   2918803000                       # number of WriteReq miss ticks (Tick)
system.cpu_cluster.cpus0.dcache.WriteReq.accesses::cpu_cluster.cpus0.data       130100                       # number of WriteReq accesses(hits+misses) (Count)
system.cpu_cluster.cpus0.dcache.WriteReq.accesses::total       130100                       # number of WriteReq accesses(hits+misses) (Count)
system.cpu_cluster.cpus0.dcache.WriteReq.missRate::cpu_cluster.cpus0.data     0.366949                       # miss rate for WriteReq accesses (Ratio)
system.cpu_cluster.cpus0.dcache.WriteReq.missRate::total     0.366949                       # miss rate for WriteReq accesses (Ratio)
system.cpu_cluster.cpus0.dcache.WriteReq.avgMissLatency::cpu_cluster.cpus0.data 61139.568496                       # average WriteReq miss latency ((Tick/Count))
system.cpu_cluster.cpus0.dcache.WriteReq.avgMissLatency::total 61139.568496                       # average WriteReq miss latency ((Tick/Count))
system.cpu_cluster.cpus0.dcache.WriteReq.mshrHits::cpu_cluster.cpus0.data        19519                       # number of WriteReq MSHR hits (Count)
system.cpu_cluster.cpus0.dcache.WriteReq.mshrHits::total        19519                       # number of WriteReq MSHR hits (Count)
system.cpu_cluster.cpus0.dcache.WriteReq.mshrMisses::cpu_cluster.cpus0.data        28221                       # number of WriteReq MSHR misses (Count)
system.cpu_cluster.cpus0.dcache.WriteReq.mshrMisses::total        28221                       # number of WriteReq MSHR misses (Count)
system.cpu_cluster.cpus0.dcache.WriteReq.mshrUncacheable::cpu_cluster.cpus0.data           32                       # number of WriteReq MSHR uncacheable (Count)
system.cpu_cluster.cpus0.dcache.WriteReq.mshrUncacheable::total           32                       # number of WriteReq MSHR uncacheable (Count)
system.cpu_cluster.cpus0.dcache.WriteReq.mshrMissLatency::cpu_cluster.cpus0.data   1763893000                       # number of WriteReq MSHR miss ticks (Tick)
system.cpu_cluster.cpus0.dcache.WriteReq.mshrMissLatency::total   1763893000                       # number of WriteReq MSHR miss ticks (Tick)
system.cpu_cluster.cpus0.dcache.WriteReq.mshrMissRate::cpu_cluster.cpus0.data     0.216918                       # mshr miss rate for WriteReq accesses (Ratio)
system.cpu_cluster.cpus0.dcache.WriteReq.mshrMissRate::total     0.216918                       # mshr miss rate for WriteReq accesses (Ratio)
system.cpu_cluster.cpus0.dcache.WriteReq.avgMshrMissLatency::cpu_cluster.cpus0.data 62502.852486                       # average WriteReq mshr miss latency ((Tick/Count))
system.cpu_cluster.cpus0.dcache.WriteReq.avgMshrMissLatency::total 62502.852486                       # average WriteReq mshr miss latency ((Tick/Count))
system.cpu_cluster.cpus0.dcache.power_state.pwrStateResidencyTicks::UNDEFINED 7159278478500                       # Cumulative time (in ticks) in various power states (Tick)
system.cpu_cluster.cpus0.dcache.prefetcher.demandMshrMisses        69444                       # demands not covered by prefetchs (Count)
system.cpu_cluster.cpus0.dcache.prefetcher.pfIssued        27225                       # number of hwpf issued (Count)
system.cpu_cluster.cpus0.dcache.prefetcher.pfUnused           91                       # number of HardPF blocks evicted w/o reference (Count)
system.cpu_cluster.cpus0.dcache.prefetcher.pfUseful         8770                       # number of useful prefetch (Count)
system.cpu_cluster.cpus0.dcache.prefetcher.pfUsefulButMiss            0                       # number of hit on prefetch but cache block is not in an usable state (Count)
system.cpu_cluster.cpus0.dcache.prefetcher.accuracy     0.322130                       # accuracy of the prefetcher (Count)
system.cpu_cluster.cpus0.dcache.prefetcher.coverage     0.112128                       # coverage brought by this prefetcher (Count)
system.cpu_cluster.cpus0.dcache.prefetcher.pfHitInCache          847                       # number of prefetches hitting in cache (Count)
system.cpu_cluster.cpus0.dcache.prefetcher.pfHitInMSHR            8                       # number of prefetches hitting in a MSHR (Count)
system.cpu_cluster.cpus0.dcache.prefetcher.pfHitInWB            0                       # number of prefetches hit in the Write Buffer (Count)
system.cpu_cluster.cpus0.dcache.prefetcher.pfLate          855                       # number of late prefetches (hitting in cache, MSHR or WB) (Count)
system.cpu_cluster.cpus0.dcache.prefetcher.pfIdentified        78209                       # number of prefetch candidates identified (Count)
system.cpu_cluster.cpus0.dcache.prefetcher.pfBufferHit        33527                       # number of redundant prefetches already in prefetch queue (Count)
system.cpu_cluster.cpus0.dcache.prefetcher.pfInCache            0                       # number of redundant prefetches already in cache/mshr dropped (Count)
system.cpu_cluster.cpus0.dcache.prefetcher.pfRemovedDemand           47                       # number of prefetches dropped due to a demand for the same address (Count)
system.cpu_cluster.cpus0.dcache.prefetcher.pfRemovedFull          309                       # number of prefetches dropped due to prefetch queue size (Count)
system.cpu_cluster.cpus0.dcache.prefetcher.pfSpanPage         6015                       # number of prefetches that crossed the page (Count)
system.cpu_cluster.cpus0.dcache.prefetcher.pfUsefulSpanPage            0                       # number of prefetches that is useful and crossed the page (Count)
system.cpu_cluster.cpus0.dcache.prefetcher.power_state.pwrStateResidencyTicks::UNDEFINED 7159278478500                       # Cumulative time (in ticks) in various power states (Tick)
system.cpu_cluster.cpus0.dcache.tags.tagsInUse   508.996804                       # Average ticks per tags in use ((Tick/Count))
system.cpu_cluster.cpus0.dcache.tags.totalRefs       425712                       # Total number of references to valid blocks. (Count)
system.cpu_cluster.cpus0.dcache.tags.sampledRefs        95811                       # Sample count of references to valid blocks. (Count)
system.cpu_cluster.cpus0.dcache.tags.avgRefs     4.443248                       # Average number of references to valid blocks. ((Count/Count))
system.cpu_cluster.cpus0.dcache.tags.warmupTick     54275500                       # The tick when the warmup percentage was hit. (Tick)
system.cpu_cluster.cpus0.dcache.tags.occupancies::cpu_cluster.cpus0.data    58.220384                       # Average occupied blocks per tick, per requestor ((Count/Tick))
system.cpu_cluster.cpus0.dcache.tags.occupancies::cpu_cluster.cpus0.dcache.prefetcher   450.776420                       # Average occupied blocks per tick, per requestor ((Count/Tick))
system.cpu_cluster.cpus0.dcache.tags.avgOccs::cpu_cluster.cpus0.data     0.113712                       # Average percentage of cache occupancy ((Ratio/Tick))
system.cpu_cluster.cpus0.dcache.tags.avgOccs::cpu_cluster.cpus0.dcache.prefetcher     0.880423                       # Average percentage of cache occupancy ((Ratio/Tick))
system.cpu_cluster.cpus0.dcache.tags.avgOccs::total     0.994134                       # Average percentage of cache occupancy ((Ratio/Tick))
system.cpu_cluster.cpus0.dcache.tags.occupanciesTaskId::1022          451                       # Occupied blocks per task id (Count)
system.cpu_cluster.cpus0.dcache.tags.occupanciesTaskId::1024           58                       # Occupied blocks per task id (Count)
system.cpu_cluster.cpus0.dcache.tags.ageTaskId_1022::4          451                       # Occupied blocks per task id, per block age (Count)
system.cpu_cluster.cpus0.dcache.tags.ageTaskId_1024::4           58                       # Occupied blocks per task id, per block age (Count)
system.cpu_cluster.cpus0.dcache.tags.ratioOccsTaskId::1022     0.880859                       # Ratio of occupied blocks and all blocks, per task id (Ratio)
system.cpu_cluster.cpus0.dcache.tags.ratioOccsTaskId::1024     0.113281                       # Ratio of occupied blocks and all blocks, per task id (Ratio)
system.cpu_cluster.cpus0.dcache.tags.tagAccesses      1841511                       # Number of tag accesses (Count)
system.cpu_cluster.cpus0.dcache.tags.dataAccesses      1841511                       # Number of data accesses (Count)
system.cpu_cluster.cpus0.dcache.tags.power_state.pwrStateResidencyTicks::UNDEFINED 7159278478500                       # Cumulative time (in ticks) in various power states (Tick)
system.cpu_cluster.cpus0.executeStats0.numInsts            0                       # Number of executed instructions (Count)
system.cpu_cluster.cpus0.executeStats0.numNop            0                       # Number of nop insts executed (Count)
system.cpu_cluster.cpus0.executeStats0.numBranches            0                       # Number of branches executed (Count)
system.cpu_cluster.cpus0.executeStats0.numLoadInsts            0                       # Number of load instructions executed (Count)
system.cpu_cluster.cpus0.executeStats0.numStoreInsts            0                       # Number of stores executed (Count)
system.cpu_cluster.cpus0.executeStats0.instRate            0                       # Inst execution rate ((Count/Cycle))
system.cpu_cluster.cpus0.executeStats0.numFpRegWrites            0                       # Number of times the floating registers were written (Count)
system.cpu_cluster.cpus0.executeStats0.numMemRefs            0                       # Number of memory refs (Count)
system.cpu_cluster.cpus0.executeStats0.numVecAluAccesses            0                       # Number of vector alu accesses (Count)
system.cpu_cluster.cpus0.executeStats0.numDiscardedOps    350719302                       # Number of ops (including micro ops) which were discarded before commit (Count)
system.cpu_cluster.cpus0.fetch2.intInstructions       481647                       # Number of integer instructions successfully decoded (Count)
system.cpu_cluster.cpus0.fetch2.fpInstructions            0                       # Number of floating point instructions successfully decoded (Count)
system.cpu_cluster.cpus0.fetch2.vecInstructions            0                       # Number of SIMD instructions successfully decoded (Count)
system.cpu_cluster.cpus0.fetch2.loadInstructions       140544                       # Number of memory load instructions successfully decoded (Count)
system.cpu_cluster.cpus0.fetch2.storeInstructions       144852                       # Number of memory store instructions successfully decoded (Count)
system.cpu_cluster.cpus0.fetch2.amoInstructions            1                       # Number of memory atomic instructions successfully decoded (Count)
system.cpu_cluster.cpus0.fetchStats0.numInsts            0                       # Number of instructions fetched (thread level) (Count)
system.cpu_cluster.cpus0.fetchStats0.numOps            0                       # Number of ops (including micro ops) fetched (thread level) (Count)
system.cpu_cluster.cpus0.fetchStats0.fetchRate            0                       # Number of inst fetches per cycle ((Count/Cycle))
system.cpu_cluster.cpus0.fetchStats0.branchRate            0                       # Number of branch fetches per cycle (Ratio)
system.cpu_cluster.cpus0.fetchStats0.numFetchSuspends            0                       # Number of times Execute suspended instruction fetching (Count)
system.cpu_cluster.cpus0.icache.demandHits::cpu_cluster.cpus0.inst       537459                       # number of demand (read+write) hits (Count)
system.cpu_cluster.cpus0.icache.demandHits::total       537459                       # number of demand (read+write) hits (Count)
system.cpu_cluster.cpus0.icache.overallHits::cpu_cluster.cpus0.inst       537459                       # number of overall hits (Count)
system.cpu_cluster.cpus0.icache.overallHits::total       537459                       # number of overall hits (Count)
system.cpu_cluster.cpus0.icache.demandMisses::cpu_cluster.cpus0.inst          380                       # number of demand (read+write) misses (Count)
system.cpu_cluster.cpus0.icache.demandMisses::total          380                       # number of demand (read+write) misses (Count)
system.cpu_cluster.cpus0.icache.overallMisses::cpu_cluster.cpus0.inst          380                       # number of overall misses (Count)
system.cpu_cluster.cpus0.icache.overallMisses::total          380                       # number of overall misses (Count)
system.cpu_cluster.cpus0.icache.demandMissLatency::cpu_cluster.cpus0.inst     22671750                       # number of demand (read+write) miss ticks (Tick)
system.cpu_cluster.cpus0.icache.demandMissLatency::total     22671750                       # number of demand (read+write) miss ticks (Tick)
system.cpu_cluster.cpus0.icache.overallMissLatency::cpu_cluster.cpus0.inst     22671750                       # number of overall miss ticks (Tick)
system.cpu_cluster.cpus0.icache.overallMissLatency::total     22671750                       # number of overall miss ticks (Tick)
system.cpu_cluster.cpus0.icache.demandAccesses::cpu_cluster.cpus0.inst       537839                       # number of demand (read+write) accesses (Count)
system.cpu_cluster.cpus0.icache.demandAccesses::total       537839                       # number of demand (read+write) accesses (Count)
system.cpu_cluster.cpus0.icache.overallAccesses::cpu_cluster.cpus0.inst       537839                       # number of overall (read+write) accesses (Count)
system.cpu_cluster.cpus0.icache.overallAccesses::total       537839                       # number of overall (read+write) accesses (Count)
system.cpu_cluster.cpus0.icache.demandMissRate::cpu_cluster.cpus0.inst     0.000707                       # miss rate for demand accesses (Ratio)
system.cpu_cluster.cpus0.icache.demandMissRate::total     0.000707                       # miss rate for demand accesses (Ratio)
system.cpu_cluster.cpus0.icache.overallMissRate::cpu_cluster.cpus0.inst     0.000707                       # miss rate for overall accesses (Ratio)
system.cpu_cluster.cpus0.icache.overallMissRate::total     0.000707                       # miss rate for overall accesses (Ratio)
system.cpu_cluster.cpus0.icache.demandAvgMissLatency::cpu_cluster.cpus0.inst 59662.500000                       # average overall miss latency in ticks ((Tick/Count))
system.cpu_cluster.cpus0.icache.demandAvgMissLatency::total 59662.500000                       # average overall miss latency in ticks ((Tick/Count))
system.cpu_cluster.cpus0.icache.overallAvgMissLatency::cpu_cluster.cpus0.inst 59662.500000                       # average overall miss latency ((Tick/Count))
system.cpu_cluster.cpus0.icache.overallAvgMissLatency::total 59662.500000                       # average overall miss latency ((Tick/Count))
system.cpu_cluster.cpus0.icache.blockedCycles::no_mshrs            0                       # number of cycles access was blocked (Cycle)
system.cpu_cluster.cpus0.icache.blockedCycles::no_targets            0                       # number of cycles access was blocked (Cycle)
system.cpu_cluster.cpus0.icache.blockedCauses::no_mshrs            0                       # number of times access was blocked (Count)
system.cpu_cluster.cpus0.icache.blockedCauses::no_targets            0                       # number of times access was blocked (Count)
system.cpu_cluster.cpus0.icache.avgBlocked::no_mshrs          nan                       # average number of cycles each access was blocked ((Cycle/Count))
system.cpu_cluster.cpus0.icache.avgBlocked::no_targets          nan                       # average number of cycles each access was blocked ((Cycle/Count))
system.cpu_cluster.cpus0.icache.demandMshrMisses::cpu_cluster.cpus0.inst          380                       # number of demand (read+write) MSHR misses (Count)
system.cpu_cluster.cpus0.icache.demandMshrMisses::total          380                       # number of demand (read+write) MSHR misses (Count)
system.cpu_cluster.cpus0.icache.overallMshrMisses::cpu_cluster.cpus0.inst          380                       # number of overall MSHR misses (Count)
system.cpu_cluster.cpus0.icache.overallMshrMisses::total          380                       # number of overall MSHR misses (Count)
system.cpu_cluster.cpus0.icache.overallMshrUncacheable::cpu_cluster.cpus0.inst    140285550                       # number of overall MSHR uncacheable misses (Count)
system.cpu_cluster.cpus0.icache.overallMshrUncacheable::total    140285550                       # number of overall MSHR uncacheable misses (Count)
system.cpu_cluster.cpus0.icache.demandMshrMissLatency::cpu_cluster.cpus0.inst     22576750                       # number of demand (read+write) MSHR miss ticks (Tick)
system.cpu_cluster.cpus0.icache.demandMshrMissLatency::total     22576750                       # number of demand (read+write) MSHR miss ticks (Tick)
system.cpu_cluster.cpus0.icache.overallMshrMissLatency::cpu_cluster.cpus0.inst     22576750                       # number of overall MSHR miss ticks (Tick)
system.cpu_cluster.cpus0.icache.overallMshrMissLatency::total     22576750                       # number of overall MSHR miss ticks (Tick)
system.cpu_cluster.cpus0.icache.overallMshrUncacheableLatency::cpu_cluster.cpus0.inst 7014287419000                       # number of overall MSHR uncacheable ticks (Tick)
system.cpu_cluster.cpus0.icache.overallMshrUncacheableLatency::total 7014287419000                       # number of overall MSHR uncacheable ticks (Tick)
system.cpu_cluster.cpus0.icache.demandMshrMissRate::cpu_cluster.cpus0.inst     0.000707                       # mshr miss ratio for demand accesses (Ratio)
system.cpu_cluster.cpus0.icache.demandMshrMissRate::total     0.000707                       # mshr miss ratio for demand accesses (Ratio)
system.cpu_cluster.cpus0.icache.overallMshrMissRate::cpu_cluster.cpus0.inst     0.000707                       # mshr miss ratio for overall accesses (Ratio)
system.cpu_cluster.cpus0.icache.overallMshrMissRate::total     0.000707                       # mshr miss ratio for overall accesses (Ratio)
system.cpu_cluster.cpus0.icache.demandAvgMshrMissLatency::cpu_cluster.cpus0.inst 59412.500000                       # average overall mshr miss latency ((Tick/Count))
system.cpu_cluster.cpus0.icache.demandAvgMshrMissLatency::total 59412.500000                       # average overall mshr miss latency ((Tick/Count))
system.cpu_cluster.cpus0.icache.overallAvgMshrMissLatency::cpu_cluster.cpus0.inst 59412.500000                       # average overall mshr miss latency ((Tick/Count))
system.cpu_cluster.cpus0.icache.overallAvgMshrMissLatency::total 59412.500000                       # average overall mshr miss latency ((Tick/Count))
system.cpu_cluster.cpus0.icache.overallAvgMshrUncacheableLatency::cpu_cluster.cpus0.inst 50000.070706                       # average overall mshr uncacheable latency ((Tick/Count))
system.cpu_cluster.cpus0.icache.overallAvgMshrUncacheableLatency::total 50000.070706                       # average overall mshr uncacheable latency ((Tick/Count))
system.cpu_cluster.cpus0.icache.replacements           68                       # number of replacements (Count)
system.cpu_cluster.cpus0.icache.ReadReq.hits::cpu_cluster.cpus0.inst       537459                       # number of ReadReq hits (Count)
system.cpu_cluster.cpus0.icache.ReadReq.hits::total       537459                       # number of ReadReq hits (Count)
system.cpu_cluster.cpus0.icache.ReadReq.misses::cpu_cluster.cpus0.inst          380                       # number of ReadReq misses (Count)
system.cpu_cluster.cpus0.icache.ReadReq.misses::total          380                       # number of ReadReq misses (Count)
system.cpu_cluster.cpus0.icache.ReadReq.missLatency::cpu_cluster.cpus0.inst     22671750                       # number of ReadReq miss ticks (Tick)
system.cpu_cluster.cpus0.icache.ReadReq.missLatency::total     22671750                       # number of ReadReq miss ticks (Tick)
system.cpu_cluster.cpus0.icache.ReadReq.accesses::cpu_cluster.cpus0.inst       537839                       # number of ReadReq accesses(hits+misses) (Count)
system.cpu_cluster.cpus0.icache.ReadReq.accesses::total       537839                       # number of ReadReq accesses(hits+misses) (Count)
system.cpu_cluster.cpus0.icache.ReadReq.missRate::cpu_cluster.cpus0.inst     0.000707                       # miss rate for ReadReq accesses (Ratio)
system.cpu_cluster.cpus0.icache.ReadReq.missRate::total     0.000707                       # miss rate for ReadReq accesses (Ratio)
system.cpu_cluster.cpus0.icache.ReadReq.avgMissLatency::cpu_cluster.cpus0.inst 59662.500000                       # average ReadReq miss latency ((Tick/Count))
system.cpu_cluster.cpus0.icache.ReadReq.avgMissLatency::total 59662.500000                       # average ReadReq miss latency ((Tick/Count))
system.cpu_cluster.cpus0.icache.ReadReq.mshrMisses::cpu_cluster.cpus0.inst          380                       # number of ReadReq MSHR misses (Count)
system.cpu_cluster.cpus0.icache.ReadReq.mshrMisses::total          380                       # number of ReadReq MSHR misses (Count)
system.cpu_cluster.cpus0.icache.ReadReq.mshrUncacheable::cpu_cluster.cpus0.inst    140285550                       # number of ReadReq MSHR uncacheable (Count)
system.cpu_cluster.cpus0.icache.ReadReq.mshrUncacheable::total    140285550                       # number of ReadReq MSHR uncacheable (Count)
system.cpu_cluster.cpus0.icache.ReadReq.mshrMissLatency::cpu_cluster.cpus0.inst     22576750                       # number of ReadReq MSHR miss ticks (Tick)
system.cpu_cluster.cpus0.icache.ReadReq.mshrMissLatency::total     22576750                       # number of ReadReq MSHR miss ticks (Tick)
system.cpu_cluster.cpus0.icache.ReadReq.mshrUncacheableLatency::cpu_cluster.cpus0.inst 7014287419000                       # number of ReadReq MSHR uncacheable ticks (Tick)
system.cpu_cluster.cpus0.icache.ReadReq.mshrUncacheableLatency::total 7014287419000                       # number of ReadReq MSHR uncacheable ticks (Tick)
system.cpu_cluster.cpus0.icache.ReadReq.mshrMissRate::cpu_cluster.cpus0.inst     0.000707                       # mshr miss rate for ReadReq accesses (Ratio)
system.cpu_cluster.cpus0.icache.ReadReq.mshrMissRate::total     0.000707                       # mshr miss rate for ReadReq accesses (Ratio)
system.cpu_cluster.cpus0.icache.ReadReq.avgMshrMissLatency::cpu_cluster.cpus0.inst 59412.500000                       # average ReadReq mshr miss latency ((Tick/Count))
system.cpu_cluster.cpus0.icache.ReadReq.avgMshrMissLatency::total 59412.500000                       # average ReadReq mshr miss latency ((Tick/Count))
system.cpu_cluster.cpus0.icache.ReadReq.avgMshrUncacheableLatency::cpu_cluster.cpus0.inst 50000.070706                       # average ReadReq mshr uncacheable latency ((Tick/Count))
system.cpu_cluster.cpus0.icache.ReadReq.avgMshrUncacheableLatency::total 50000.070706                       # average ReadReq mshr uncacheable latency ((Tick/Count))
system.cpu_cluster.cpus0.icache.power_state.pwrStateResidencyTicks::UNDEFINED 7159278478500                       # Cumulative time (in ticks) in various power states (Tick)
system.cpu_cluster.cpus0.icache.tags.tagsInUse   309.864874                       # Average ticks per tags in use ((Tick/Count))
system.cpu_cluster.cpus0.icache.tags.totalRefs       537839                       # Total number of references to valid blocks. (Count)
system.cpu_cluster.cpus0.icache.tags.sampledRefs          380                       # Sample count of references to valid blocks. (Count)
system.cpu_cluster.cpus0.icache.tags.avgRefs  1415.365789                       # Average number of references to valid blocks. ((Count/Count))
system.cpu_cluster.cpus0.icache.tags.warmupTick     53758500                       # The tick when the warmup percentage was hit. (Tick)
system.cpu_cluster.cpus0.icache.tags.occupancies::cpu_cluster.cpus0.inst   309.864874                       # Average occupied blocks per tick, per requestor ((Count/Tick))
system.cpu_cluster.cpus0.icache.tags.avgOccs::cpu_cluster.cpus0.inst     0.605205                       # Average percentage of cache occupancy ((Ratio/Tick))
system.cpu_cluster.cpus0.icache.tags.avgOccs::total     0.605205                       # Average percentage of cache occupancy ((Ratio/Tick))
system.cpu_cluster.cpus0.icache.tags.occupanciesTaskId::1024          310                       # Occupied blocks per task id (Count)
system.cpu_cluster.cpus0.icache.tags.ageTaskId_1024::4          310                       # Occupied blocks per task id, per block age (Count)
system.cpu_cluster.cpus0.icache.tags.ratioOccsTaskId::1024     0.605469                       # Ratio of occupied blocks and all blocks, per task id (Ratio)
system.cpu_cluster.cpus0.icache.tags.tagAccesses      1076058                       # Number of tag accesses (Count)
system.cpu_cluster.cpus0.icache.tags.dataAccesses      1076058                       # Number of data accesses (Count)
system.cpu_cluster.cpus0.icache.tags.power_state.pwrStateResidencyTicks::UNDEFINED 7159278478500                       # Cumulative time (in ticks) in various power states (Tick)
system.cpu_cluster.cpus0.mmu.alignFaults            0                       # Number of MMU faults due to alignment restrictions (Count)
system.cpu_cluster.cpus0.mmu.prefetchFaults            0                       # Number of MMU faults due to prefetch (Count)
system.cpu_cluster.cpus0.mmu.domainFaults            0                       # Number of MMU faults due to domain restrictions (Count)
system.cpu_cluster.cpus0.mmu.permsFaults            0                       # Number of MMU faults due to permissions restrictions (Count)
system.cpu_cluster.cpus0.mmu.dtb.readHits       288876                       # Read hits (Count)
system.cpu_cluster.cpus0.mmu.dtb.readMisses            8                       # Read misses (Count)
system.cpu_cluster.cpus0.mmu.dtb.writeHits       147956                       # Write hits (Count)
system.cpu_cluster.cpus0.mmu.dtb.writeMisses            9                       # Write misses (Count)
system.cpu_cluster.cpus0.mmu.dtb.inserts           13                       # Number of times an entry is inserted into the TLB (Count)
system.cpu_cluster.cpus0.mmu.dtb.flushTlb            2                       # Number of times a TLB invalidation was requested (Count)
system.cpu_cluster.cpus0.mmu.dtb.flushedEntries            1                       # Number of entries that have been flushed from TLB (Count)
system.cpu_cluster.cpus0.mmu.dtb.readAccesses       288884                       # Read accesses (Count)
system.cpu_cluster.cpus0.mmu.dtb.writeAccesses       147965                       # Write accesses (Count)
system.cpu_cluster.cpus0.mmu.dtb.hits          436832                       # Total TLB (inst and data) hits (Count)
system.cpu_cluster.cpus0.mmu.dtb.misses            17                       # Total TLB (inst and data) misses (Count)
system.cpu_cluster.cpus0.mmu.dtb.accesses       436849                       # Total TLB (inst and data) accesses (Count)
system.cpu_cluster.cpus0.mmu.dtb_walker.walks           17                       # Table walker walks requested (Count)
system.cpu_cluster.cpus0.mmu.dtb_walker.walksLongDescriptor           17                       # Table walker walks initiated with long descriptors (Count)
system.cpu_cluster.cpus0.mmu.dtb_walker.walksLongTerminatedAtLevel::Level2           12                       # Level at which table walker walks with long descriptors terminate (Count)
system.cpu_cluster.cpus0.mmu.dtb_walker.walksLongTerminatedAtLevel::Level3            1                       # Level at which table walker walks with long descriptors terminate (Count)
system.cpu_cluster.cpus0.mmu.dtb_walker.walkWaitTime::samples           17                       # Table walker wait (enqueue to first request) latency (Tick)
system.cpu_cluster.cpus0.mmu.dtb_walker.walkWaitTime::0           17    100.00%    100.00% # Table walker wait (enqueue to first request) latency (Tick)
system.cpu_cluster.cpus0.mmu.dtb_walker.walkWaitTime::total           17                       # Table walker wait (enqueue to first request) latency (Tick)
system.cpu_cluster.cpus0.mmu.dtb_walker.walkServiceTime::samples           13                       # Table walker service (enqueue to completion) latency (Tick)
system.cpu_cluster.cpus0.mmu.dtb_walker.walkServiceTime::mean 70826.923077                       # Table walker service (enqueue to completion) latency (Tick)
system.cpu_cluster.cpus0.mmu.dtb_walker.walkServiceTime::gmean 24056.003682                       # Table walker service (enqueue to completion) latency (Tick)
system.cpu_cluster.cpus0.mmu.dtb_walker.walkServiceTime::stdev 78320.414578                       # Table walker service (enqueue to completion) latency (Tick)
system.cpu_cluster.cpus0.mmu.dtb_walker.walkServiceTime::0-16383            7     53.85%     53.85% # Table walker service (enqueue to completion) latency (Tick)
system.cpu_cluster.cpus0.mmu.dtb_walker.walkServiceTime::65536-81919            1      7.69%     61.54% # Table walker service (enqueue to completion) latency (Tick)
system.cpu_cluster.cpus0.mmu.dtb_walker.walkServiceTime::114688-131071            1      7.69%     69.23% # Table walker service (enqueue to completion) latency (Tick)
system.cpu_cluster.cpus0.mmu.dtb_walker.walkServiceTime::131072-147455            1      7.69%     76.92% # Table walker service (enqueue to completion) latency (Tick)
system.cpu_cluster.cpus0.mmu.dtb_walker.walkServiceTime::163840-180223            2     15.38%     92.31% # Table walker service (enqueue to completion) latency (Tick)
system.cpu_cluster.cpus0.mmu.dtb_walker.walkServiceTime::196608-212991            1      7.69%    100.00% # Table walker service (enqueue to completion) latency (Tick)
system.cpu_cluster.cpus0.mmu.dtb_walker.walkServiceTime::total           13                       # Table walker service (enqueue to completion) latency (Tick)
system.cpu_cluster.cpus0.mmu.dtb_walker.pendingWalks::samples     54183500                       # Table walker pending requests distribution (Tick)
system.cpu_cluster.cpus0.mmu.dtb_walker.pendingWalks::0     54183500    100.00%    100.00% # Table walker pending requests distribution (Tick)
system.cpu_cluster.cpus0.mmu.dtb_walker.pendingWalks::total     54183500                       # Table walker pending requests distribution (Tick)
system.cpu_cluster.cpus0.mmu.dtb_walker.pageSizes::4KiB            1      7.69%      7.69% # Table walker page sizes translated (Count)
system.cpu_cluster.cpus0.mmu.dtb_walker.pageSizes::2MiB           12     92.31%    100.00% # Table walker page sizes translated (Count)
system.cpu_cluster.cpus0.mmu.dtb_walker.pageSizes::total           13                       # Table walker page sizes translated (Count)
system.cpu_cluster.cpus0.mmu.dtb_walker.requestOrigin_Requested::Data           17                       # Table walker requests started/completed, data/inst (Count)
system.cpu_cluster.cpus0.mmu.dtb_walker.requestOrigin_Requested::Inst            0                       # Table walker requests started/completed, data/inst (Count)
system.cpu_cluster.cpus0.mmu.dtb_walker.requestOrigin_Requested::total           17                       # Table walker requests started/completed, data/inst (Count)
system.cpu_cluster.cpus0.mmu.dtb_walker.requestOrigin_Completed::Data           13                       # Table walker requests started/completed, data/inst (Count)
system.cpu_cluster.cpus0.mmu.dtb_walker.requestOrigin_Completed::Inst            0                       # Table walker requests started/completed, data/inst (Count)
system.cpu_cluster.cpus0.mmu.dtb_walker.requestOrigin_Completed::total           13                       # Table walker requests started/completed, data/inst (Count)
system.cpu_cluster.cpus0.mmu.dtb_walker.requestOrigin::total           30                       # Table walker requests started/completed, data/inst (Count)
system.cpu_cluster.cpus0.mmu.dtb_walker.power_state.pwrStateResidencyTicks::UNDEFINED 7159278478500                       # Cumulative time (in ticks) in various power states (Tick)
system.cpu_cluster.cpus0.mmu.itb.instHits       537840                       # Inst hits (Count)
system.cpu_cluster.cpus0.mmu.itb.instMisses            8                       # Inst misses (Count)
system.cpu_cluster.cpus0.mmu.itb.inserts            8                       # Number of times an entry is inserted into the TLB (Count)
system.cpu_cluster.cpus0.mmu.itb.flushTlb            2                       # Number of times a TLB invalidation was requested (Count)
system.cpu_cluster.cpus0.mmu.itb.flushedEntries            0                       # Number of entries that have been flushed from TLB (Count)
system.cpu_cluster.cpus0.mmu.itb.instAccesses       537848                       # Inst accesses (Count)
system.cpu_cluster.cpus0.mmu.itb.hits          537840                       # Total TLB (inst and data) hits (Count)
system.cpu_cluster.cpus0.mmu.itb.misses             8                       # Total TLB (inst and data) misses (Count)
system.cpu_cluster.cpus0.mmu.itb.accesses       537848                       # Total TLB (inst and data) accesses (Count)
system.cpu_cluster.cpus0.mmu.itb_walker.walks            8                       # Table walker walks requested (Count)
system.cpu_cluster.cpus0.mmu.itb_walker.walksLongDescriptor            8                       # Table walker walks initiated with long descriptors (Count)
system.cpu_cluster.cpus0.mmu.itb_walker.walksLongTerminatedAtLevel::Level2            8                       # Level at which table walker walks with long descriptors terminate (Count)
system.cpu_cluster.cpus0.mmu.itb_walker.walkWaitTime::samples            8                       # Table walker wait (enqueue to first request) latency (Tick)
system.cpu_cluster.cpus0.mmu.itb_walker.walkWaitTime::0            8    100.00%    100.00% # Table walker wait (enqueue to first request) latency (Tick)
system.cpu_cluster.cpus0.mmu.itb_walker.walkWaitTime::total            8                       # Table walker wait (enqueue to first request) latency (Tick)
system.cpu_cluster.cpus0.mmu.itb_walker.walkServiceTime::samples            8                       # Table walker service (enqueue to completion) latency (Tick)
system.cpu_cluster.cpus0.mmu.itb_walker.walkServiceTime::mean 70718.750000                       # Table walker service (enqueue to completion) latency (Tick)
system.cpu_cluster.cpus0.mmu.itb_walker.walkServiceTime::gmean 39495.458815                       # Table walker service (enqueue to completion) latency (Tick)
system.cpu_cluster.cpus0.mmu.itb_walker.walkServiceTime::stdev 62142.755798                       # Table walker service (enqueue to completion) latency (Tick)
system.cpu_cluster.cpus0.mmu.itb_walker.walkServiceTime::0-16383            3     37.50%     37.50% # Table walker service (enqueue to completion) latency (Tick)
system.cpu_cluster.cpus0.mmu.itb_walker.walkServiceTime::49152-65535            2     25.00%     62.50% # Table walker service (enqueue to completion) latency (Tick)
system.cpu_cluster.cpus0.mmu.itb_walker.walkServiceTime::114688-131071            1     12.50%     75.00% # Table walker service (enqueue to completion) latency (Tick)
[...]
system.membus.pktCount::total               280843491                       # Packet count per connected requestor and responder (Count)
system.membus.pktSize_system.cpu_cluster.l2.mem_side_port::system.mem_ctrls.port      8141368                       # Cumulative packet size per connected requestor and responder (Byte)
system.membus.pktSize_system.cpu_cluster.l2.mem_side_port::system.iobridge.cpu_side_port           16                       # Cumulative packet size per connected requestor and responder (Byte)
system.membus.pktSize_system.cpu_cluster.l2.mem_side_port::system.realview.bootmem.port   8978227324                       # Cumulative packet size per connected requestor and responder (Byte)
system.membus.pktSize_system.cpu_cluster.l2.mem_side_port::system.realview.gic.pio           76                       # Cumulative packet size per connected requestor and responder (Byte)
system.membus.pktSize_system.cpu_cluster.l2.mem_side_port::total   8986368784                       # Cumulative packet size per connected requestor and responder (Byte)
system.membus.pktSize::total               8986368784                       # Cumulative packet size per connected requestor and responder (Byte)
system.membus.snoops                                0                       # Total snoops (Count)
system.membus.snoopTraffic                          0                       # Total snoop traffic (Byte)
system.membus.snoopFanout::samples          140382225                       # Request fanout histogram (Count)
system.membus.snoopFanout::mean                     0                       # Request fanout histogram (Count)
system.membus.snoopFanout::stdev                    0                       # Request fanout histogram (Count)
system.membus.snoopFanout::underflows               0      0.00%      0.00% # Request fanout histogram (Count)
system.membus.snoopFanout::0                140382225    100.00%    100.00% # Request fanout histogram (Count)
system.membus.snoopFanout::1                        0      0.00%    100.00% # Request fanout histogram (Count)
system.membus.snoopFanout::2                        0      0.00%    100.00% # Request fanout histogram (Count)
system.membus.snoopFanout::overflows                0      0.00%    100.00% # Request fanout histogram (Count)
system.membus.snoopFanout::min_value                0                       # Request fanout histogram (Count)
system.membus.snoopFanout::max_value                0                       # Request fanout histogram (Count)
system.membus.snoopFanout::total            140382225                       # Request fanout histogram (Count)
system.membus.badaddr_responder.power_state.pwrStateResidencyTicks::UNDEFINED 7159278478500                       # Cumulative time (in ticks) in various power states (Tick)
system.membus.power_state.pwrStateResidencyTicks::UNDEFINED 7159278478500                       # Cumulative time (in ticks) in various power states (Tick)
system.membus.reqLayer0.occupancy           375572577                       # Layer occupancy (ticks) (Tick)
system.membus.reqLayer0.utilization               0.0                       # Layer utilization (Ratio)
system.membus.reqLayer1.occupancy                8251                       # Layer occupancy (ticks) (Tick)
system.membus.reqLayer1.utilization               0.0                       # Layer utilization (Ratio)
system.membus.reqLayer13.occupancy              36834                       # Layer occupancy (ticks) (Tick)
system.membus.reqLayer13.utilization              0.0                       # Layer utilization (Ratio)
system.membus.reqLayer2.occupancy        245498408626                       # Layer occupancy (ticks) (Tick)
system.membus.reqLayer2.utilization               0.0                       # Layer utilization (Ratio)
system.membus.respLayer2.occupancy       701932474219                       # Layer occupancy (ticks) (Tick)
system.membus.respLayer2.utilization              0.1                       # Layer utilization (Ratio)
system.membus.snoop_filter.totRequests         176163                       # Total number of requests made to the snoop filter. (Count)
system.membus.snoop_filter.hitSingleRequests        79675                       # Number of requests hitting in the snoop filter with a single holder of the requested data. (Count)
system.membus.snoop_filter.hitMultiRequests            0                       # Number of requests hitting in the snoop filter with multiple (>1) holders of the requested data. (Count)
system.membus.snoop_filter.totSnoops                0                       # Total number of snoops made to the snoop filter. (Count)
system.membus.snoop_filter.hitSingleSnoops            0                       # Number of snoops hitting in the snoop filter with a single holder of the requested data. (Count)
system.membus.snoop_filter.hitMultiSnoops            0                       # Number of snoops hitting in the snoop filter with multiple (>1) holders of the requested data. (Count)
system.pci_devices.power_state.pwrStateResidencyTicks::UNDEFINED 7159278478500                       # Cumulative time (in ticks) in various power states (Tick)
system.realview.bootmem.bytesRead::cpu_cluster.cpus0.inst   8978221184                       # Number of bytes read from this memory (Byte)
system.realview.bootmem.bytesRead::cpu_cluster.cpus0.data           68                       # Number of bytes read from this memory (Byte)
system.realview.bootmem.bytesRead::cpu_cluster.cpus1.inst         1984                       # Number of bytes read from this memory (Byte)
system.realview.bootmem.bytesRead::cpu_cluster.cpus1.data           40                       # Number of bytes read from this memory (Byte)
system.realview.bootmem.bytesRead::cpu_cluster.cpus2.inst         1984                       # Number of bytes read from this memory (Byte)
system.realview.bootmem.bytesRead::cpu_cluster.cpus2.data           40                       # Number of bytes read from this memory (Byte)
system.realview.bootmem.bytesRead::cpu_cluster.cpus3.inst         1984                       # Number of bytes read from this memory (Byte)
system.realview.bootmem.bytesRead::cpu_cluster.cpus3.data           40                       # Number of bytes read from this memory (Byte)
system.realview.bootmem.bytesRead::total   8978227324                       # Number of bytes read from this memory (Byte)
system.realview.bootmem.bytesInstRead::cpu_cluster.cpus0.inst   8978221184                       # Number of instructions bytes read from this memory (Byte)
system.realview.bootmem.bytesInstRead::cpu_cluster.cpus1.inst         1984                       # Number of instructions bytes read from this memory (Byte)
system.realview.bootmem.bytesInstRead::cpu_cluster.cpus2.inst         1984                       # Number of instructions bytes read from this memory (Byte)
system.realview.bootmem.bytesInstRead::cpu_cluster.cpus3.inst         1984                       # Number of instructions bytes read from this memory (Byte)
system.realview.bootmem.bytesInstRead::total   8978227136                       # Number of instructions bytes read from this memory (Byte)
system.realview.bootmem.numReads::cpu_cluster.cpus0.inst    140284706                       # Number of read requests responded to by this memory (Count)
system.realview.bootmem.numReads::cpu_cluster.cpus0.data            9                       # Number of read requests responded to by this memory (Count)
system.realview.bootmem.numReads::cpu_cluster.cpus1.inst           31                       # Number of read requests responded to by this memory (Count)
system.realview.bootmem.numReads::cpu_cluster.cpus1.data            5                       # Number of read requests responded to by this memory (Count)
system.realview.bootmem.numReads::cpu_cluster.cpus2.inst           31                       # Number of read requests responded to by this memory (Count)
system.realview.bootmem.numReads::cpu_cluster.cpus2.data            5                       # Number of read requests responded to by this memory (Count)
system.realview.bootmem.numReads::cpu_cluster.cpus3.inst           31                       # Number of read requests responded to by this memory (Count)
system.realview.bootmem.numReads::cpu_cluster.cpus3.data            5                       # Number of read requests responded to by this memory (Count)
system.realview.bootmem.numReads::total     140284823                       # Number of read requests responded to by this memory (Count)
system.realview.bootmem.bwRead::cpu_cluster.cpus0.inst   1254067880                       # Total read bandwidth from this memory ((Byte/Second))
system.realview.bootmem.bwRead::cpu_cluster.cpus0.data            9                       # Total read bandwidth from this memory ((Byte/Second))
system.realview.bootmem.bwRead::cpu_cluster.cpus1.inst          277                       # Total read bandwidth from this memory ((Byte/Second))
system.realview.bootmem.bwRead::cpu_cluster.cpus1.data            6                       # Total read bandwidth from this memory ((Byte/Second))
system.realview.bootmem.bwRead::cpu_cluster.cpus2.inst          277                       # Total read bandwidth from this memory ((Byte/Second))
system.realview.bootmem.bwRead::cpu_cluster.cpus2.data            6                       # Total read bandwidth from this memory ((Byte/Second))
system.realview.bootmem.bwRead::cpu_cluster.cpus3.inst          277                       # Total read bandwidth from this memory ((Byte/Second))
system.realview.bootmem.bwRead::cpu_cluster.cpus3.data            6                       # Total read bandwidth from this memory ((Byte/Second))
system.realview.bootmem.bwRead::total      1254068738                       # Total read bandwidth from this memory ((Byte/Second))
system.realview.bootmem.bwInstRead::cpu_cluster.cpus0.inst   1254067880                       # Instruction read bandwidth from this memory ((Byte/Second))
system.realview.bootmem.bwInstRead::cpu_cluster.cpus1.inst          277                       # Instruction read bandwidth from this memory ((Byte/Second))
system.realview.bootmem.bwInstRead::cpu_cluster.cpus2.inst          277                       # Instruction read bandwidth from this memory ((Byte/Second))
system.realview.bootmem.bwInstRead::cpu_cluster.cpus3.inst          277                       # Instruction read bandwidth from this memory ((Byte/Second))
system.realview.bootmem.bwInstRead::total   1254068711                       # Instruction read bandwidth from this memory ((Byte/Second))
system.realview.bootmem.bwTotal::cpu_cluster.cpus0.inst   1254067880                       # Total bandwidth to/from this memory ((Byte/Second))
system.realview.bootmem.bwTotal::cpu_cluster.cpus0.data            9                       # Total bandwidth to/from this memory ((Byte/Second))
system.realview.bootmem.bwTotal::cpu_cluster.cpus1.inst          277                       # Total bandwidth to/from this memory ((Byte/Second))
system.realview.bootmem.bwTotal::cpu_cluster.cpus1.data            6                       # Total bandwidth to/from this memory ((Byte/Second))
system.realview.bootmem.bwTotal::cpu_cluster.cpus2.inst          277                       # Total bandwidth to/from this memory ((Byte/Second))
system.realview.bootmem.bwTotal::cpu_cluster.cpus2.data            6                       # Total bandwidth to/from this memory ((Byte/Second))
system.realview.bootmem.bwTotal::cpu_cluster.cpus3.inst          277                       # Total bandwidth to/from this memory ((Byte/Second))
system.realview.bootmem.bwTotal::cpu_cluster.cpus3.data            6                       # Total bandwidth to/from this memory ((Byte/Second))
system.realview.bootmem.bwTotal::total     1254068738                       # Total bandwidth to/from this memory ((Byte/Second))
system.realview.bootmem.power_state.pwrStateResidencyTicks::UNDEFINED 7159278478500                       # Cumulative time (in ticks) in various power states (Tick)
system.realview.clock24MHz.clock                41667                       # Clock period in ticks (Tick)
system.realview.clock32KHz.clock             31250000                       # Clock period in ticks (Tick)
system.realview.dcc.osc_cpu.clock               16667                       # Clock period in ticks (Tick)
system.realview.dcc.osc_ddr.clock               25000                       # Clock period in ticks (Tick)
system.realview.dcc.osc_hsbm.clock              25000                       # Clock period in ticks (Tick)
system.realview.dcc.osc_pxl.clock               42105                       # Clock period in ticks (Tick)
system.realview.dcc.osc_smb.clock               20000                       # Clock period in ticks (Tick)
system.realview.dcc.osc_sys.clock               16667                       # Clock period in ticks (Tick)
system.realview.el2_watchdog.power_state.pwrStateResidencyTicks::UNDEFINED 7159278478500                       # Cumulative time (in ticks) in various power states (Tick)
system.realview.energy_ctrl.power_state.pwrStateResidencyTicks::UNDEFINED 7159278478500                       # Cumulative time (in ticks) in various power states (Tick)
system.realview.flash0.power_state.pwrStateResidencyTicks::UNDEFINED 7159278478500                       # Cumulative time (in ticks) in various power states (Tick)
system.realview.flash1.power_state.pwrStateResidencyTicks::UNDEFINED 7159278478500                       # Cumulative time (in ticks) in various power states (Tick)
system.realview.generic_timer_mem.frames0.power_state.pwrStateResidencyTicks::UNDEFINED 7159278478500                       # Cumulative time (in ticks) in various power states (Tick)
system.realview.generic_timer_mem.frames1.power_state.pwrStateResidencyTicks::UNDEFINED 7159278478500                       # Cumulative time (in ticks) in various power states (Tick)
system.realview.generic_timer_mem.power_state.pwrStateResidencyTicks::UNDEFINED 7159278478500                       # Cumulative time (in ticks) in various power states (Tick)
system.realview.gic.power_state.pwrStateResidencyTicks::UNDEFINED 7159278478500                       # Cumulative time (in ticks) in various power states (Tick)
system.realview.gicv2m.power_state.pwrStateResidencyTicks::UNDEFINED 7159278478500                       # Cumulative time (in ticks) in various power states (Tick)
system.realview.io_voltage.voltage           3.300000                       # Voltage in Volts (Volt)
system.realview.kmi0.power_state.pwrStateResidencyTicks::UNDEFINED 7159278478500                       # Cumulative time (in ticks) in various power states (Tick)
system.realview.kmi1.power_state.pwrStateResidencyTicks::UNDEFINED 7159278478500                       # Cumulative time (in ticks) in various power states (Tick)
system.realview.mcc.osc_clcd.clock              42105                       # Clock period in ticks (Tick)
system.realview.mcc.osc_mcc.clock               20000                       # Clock period in ticks (Tick)
system.realview.mcc.osc_peripheral.clock        41667                       # Clock period in ticks (Tick)
system.realview.mcc.osc_system_bus.clock        41667                       # Clock period in ticks (Tick)
system.realview.non_trusted_sram.power_state.pwrStateResidencyTicks::UNDEFINED 7159278478500                       # Cumulative time (in ticks) in various power states (Tick)
system.realview.pci_host.power_state.pwrStateResidencyTicks::UNDEFINED 7159278478500                       # Cumulative time (in ticks) in various power states (Tick)
system.realview.pwr_ctrl.power_state.pwrStateResidencyTicks::UNDEFINED 7159278478500                       # Cumulative time (in ticks) in various power states (Tick)
system.realview.realview_io.power_state.pwrStateResidencyTicks::UNDEFINED 7159278478500                       # Cumulative time (in ticks) in various power states (Tick)
system.realview.rtc.power_state.pwrStateResidencyTicks::UNDEFINED 7159278478500                       # Cumulative time (in ticks) in various power states (Tick)
system.realview.system_watchdog.power_state.pwrStateResidencyTicks::UNDEFINED 7159278478500                       # Cumulative time (in ticks) in various power states (Tick)
system.realview.trusted_dram.power_state.pwrStateResidencyTicks::UNDEFINED 7159278478500                       # Cumulative time (in ticks) in various power states (Tick)
system.realview.trusted_sram.power_state.pwrStateResidencyTicks::UNDEFINED 7159278478500                       # Cumulative time (in ticks) in various power states (Tick)
system.realview.trusted_watchdog.power_state.pwrStateResidencyTicks::UNDEFINED 7159278478500                       # Cumulative time (in ticks) in various power states (Tick)
system.realview.uart0.power_state.pwrStateResidencyTicks::UNDEFINED 7159278478500                       # Cumulative time (in ticks) in various power states (Tick)
system.realview.uart1.power_state.pwrStateResidencyTicks::UNDEFINED 7159278478500                       # Cumulative time (in ticks) in various power states (Tick)
system.realview.uart2.power_state.pwrStateResidencyTicks::UNDEFINED 7159278478500                       # Cumulative time (in ticks) in various power states (Tick)
system.realview.uart3.power_state.pwrStateResidencyTicks::UNDEFINED 7159278478500                       # Cumulative time (in ticks) in various power states (Tick)
system.realview.vgic.power_state.pwrStateResidencyTicks::UNDEFINED 7159278478500                       # Cumulative time (in ticks) in various power states (Tick)
system.realview.vio0.power_state.pwrStateResidencyTicks::UNDEFINED 7159278478500                       # Cumulative time (in ticks) in various power states (Tick)
system.realview.vio1.power_state.pwrStateResidencyTicks::UNDEFINED 7159278478500                       # Cumulative time (in ticks) in various power states (Tick)
system.realview.vram.power_state.pwrStateResidencyTicks::UNDEFINED 7159278478500                       # Cumulative time (in ticks) in various power states (Tick)
system.realview.watchdog.power_state.pwrStateResidencyTicks::UNDEFINED 7159278478500                       # Cumulative time (in ticks) in various power states (Tick)
system.voltage_domain.voltage                       1                       # Voltage in Volts (Volt)
system.workload.inst.arm                            0                       # number of arm instructions executed (Count)
system.workload.inst.quiesce                        6                       # number of quiesce instructions executed (Count)
system.cpu_cluster.cpus0.idleCycles       27723639109                       # Total number of cycles that the object has spent stopped (Unspecified)
system.cpu_cluster.cpus0.tickCycles         913474805                       # Number of cycles that the object actually ticked (Unspecified)
system.cpu_cluster.cpus1.idleCycles              7043                       # Total number of cycles that the object has spent stopped (Unspecified)
system.cpu_cluster.cpus1.tickCycles               271                       # Number of cycles that the object actually ticked (Unspecified)
system.cpu_cluster.cpus2.idleCycles              7070                       # Total number of cycles that the object has spent stopped (Unspecified)
system.cpu_cluster.cpus2.tickCycles               268                       # Number of cycles that the object actually ticked (Unspecified)
system.cpu_cluster.cpus3.idleCycles              7183                       # Total number of cycles that the object has spent stopped (Unspecified)
system.cpu_cluster.cpus3.tickCycles               271                       # Number of cycles that the object actually ticked (Unspecified)

---------- End Simulation Statistics   ----------
