
---------- Begin Simulation Statistics ----------
simSeconds                                   0.009942                       # Number of seconds simulated (Second)
simTicks                                     14913430                       # Number of ticks simulated (Tick)
finalTick                                    14913430                       # Number of ticks from beginning of simulation (restored from checkpoints and never reset) (Tick)
simFreq                                    1500000000                       # The number of ticks per simulated second ((Tick/Second))
hostSeconds                                     12.66                       # Real time elapsed on the host (Second)
hostTickRate                                  1177893                       # The number of ticks simulated per host second (ticks/s) ((Tick/Second))
hostMemory                                    4894632                       # Number of bytes of host memory used (Byte)
simInsts                                     13611542                       # Number of instructions simulated (Count)
simOps                                       14913565                       # Number of ops (including micro ops) simulated (Count)
hostInstRate                                  1075055                       # Simulator instruction rate (inst/s) ((Count/Second))
hostOpRate                                    1177889                       # Simulator op (including micro ops) rate (op/s) ((Count/Second))
system.clk_domain.clock                             1                       # Clock period in ticks (Tick)
system.cpu_cluster.clk_domain.clock                 1                       # Clock period in ticks (Tick)
system.cpu_cluster.cpus0.numCycles           14913431                       # Number of cpu cycles simulated (Cycle)
system.cpu_cluster.cpus0.cpi                 1.095657                       # CPI: cycles per instruction (core level) ((Cycle/Count))
system.cpu_cluster.cpus0.ipc                 0.912695                       # IPC: instructions per cycle (core level) ((Count/Cycle))
system.cpu_cluster.cpus0.numWorkItemsStarted            0                       # Number of work items this cpu started (Count)
system.cpu_cluster.cpus0.numWorkItemsCompleted            0                       # Number of work items this cpu completed (Count)
system.cpu_cluster.cpus0.commitStats0.numInsts     13611408                       # Number of instructions committed (thread level) (Count)
system.cpu_cluster.cpus0.commitStats0.numOps     14913431                       # Number of ops (including micro ops) committed (thread level) (Count)
system.cpu_cluster.cpus0.commitStats0.numInstsNotNOP            0                       # Number of instructions committed excluding NOPs or prefetches (Count)
system.cpu_cluster.cpus0.commitStats0.numOpsNotNOP            0                       # Number of Ops (including micro ops) Simulated (Count)
system.cpu_cluster.cpus0.commitStats0.cpi     1.095657                       # CPI: cycles per instruction (thread level) ((Cycle/Count))
system.cpu_cluster.cpus0.commitStats0.ipc     0.912695                       # IPC: instructions per cycle (thread level) ((Count/Cycle))
system.cpu_cluster.cpus0.commitStats0.numMemRefs            0                       # Number of memory references committed (Count)
system.cpu_cluster.cpus0.commitStats0.numFpInsts            0                       # Number of float instructions (Count)
system.cpu_cluster.cpus0.commitStats0.numIntInsts     13775979                       # Number of integer instructions (Count)
system.cpu_cluster.cpus0.commitStats0.numLoadInsts      1799722                       # Number of load instructions (Count)
system.cpu_cluster.cpus0.commitStats0.numStoreInsts      1126778                       # Number of store instructions (Count)
system.cpu_cluster.cpus0.commitStats0.numVecInsts            0                       # Number of vector instructions (Count)
system.cpu_cluster.cpus0.commitStats0.committedInstType::No_OpClass            0      0.00%      0.00% # Class of committed instruction. (Count)
system.cpu_cluster.cpus0.commitStats0.committedInstType::IntAlu     11986810     80.38%     80.38% # Class of committed instruction. (Count)
system.cpu_cluster.cpus0.commitStats0.committedInstType::IntMult          121      0.00%     80.38% # Class of committed instruction. (Count)
system.cpu_cluster.cpus0.commitStats0.committedInstType::IntDiv            0      0.00%     80.38% # Class of committed instruction. (Count)
system.cpu_cluster.cpus0.commitStats0.committedInstType::FloatAdd            0      0.00%     80.38% # Class of committed instruction. (Count)
system.cpu_cluster.cpus0.commitStats0.committedInstType::FloatCmp            0      0.00%     80.38% # Class of committed instruction. (Count)
system.cpu_cluster.cpus0.commitStats0.committedInstType::FloatCvt            0      0.00%     80.38% # Class of committed instruction. (Count)
system.cpu_cluster.cpus0.commitStats0.committedInstType::FloatMult            0      0.00%     80.38% # Class of committed instruction. (Count)
system.cpu_cluster.cpus0.commitStats0.committedInstType::FloatMultAcc            0      0.00%     80.38% # Class of committed instruction. (Count)
system.cpu_cluster.cpus0.commitStats0.committedInstType::FloatDiv            0      0.00%     80.38% # Class of committed instruction. (Count)
system.cpu_cluster.cpus0.commitStats0.committedInstType::FloatMisc            0      0.00%     80.38% # Class of committed instruction. (Count)
system.cpu_cluster.cpus0.commitStats0.committedInstType::FloatSqrt            0      0.00%     80.38% # Class of committed instruction. (Count)
system.cpu_cluster.cpus0.commitStats0.committedInstType::SimdAdd            0      0.00%     80.38% # Class of committed instruction. (Count)
system.cpu_cluster.cpus0.commitStats0.committedInstType::SimdAddAcc            0      0.00%     80.38% # Class of committed instruction. (Count)
system.cpu_cluster.cpus0.commitStats0.committedInstType::SimdAlu            0      0.00%     80.38% # Class of committed instruction. (Count)
system.cpu_cluster.cpus0.commitStats0.committedInstType::SimdCmp            0      0.00%     80.38% # Class of committed instruction. (Count)
system.cpu_cluster.cpus0.commitStats0.committedInstType::SimdCvt            0      0.00%     80.38% # Class of committed instruction. (Count)
system.cpu_cluster.cpus0.commitStats0.committedInstType::SimdMisc            0      0.00%     80.38% # Class of committed instruction. (Count)
system.cpu_cluster.cpus0.commitStats0.committedInstType::SimdMult            0      0.00%     80.38% # Class of committed instruction. (Count)
system.cpu_cluster.cpus0.commitStats0.committedInstType::SimdMultAcc            0      0.00%     80.38% # Class of committed instruction. (Count)
system.cpu_cluster.cpus0.commitStats0.committedInstType::SimdMatMultAcc            0      0.00%     80.38% # Class of committed instruction. (Count)
system.cpu_cluster.cpus0.commitStats0.committedInstType::SimdShift            0      0.00%     80.38% # Class of committed instruction. (Count)
system.cpu_cluster.cpus0.commitStats0.committedInstType::SimdShiftAcc            0      0.00%     80.38% # Class of committed instruction. (Count)
system.cpu_cluster.cpus0.commitStats0.committedInstType::SimdDiv            0      0.00%     80.38% # Class of committed instruction. (Count)
system.cpu_cluster.cpus0.commitStats0.committedInstType::SimdSqrt            0      0.00%     80.38% # Class of committed instruction. (Count)
system.cpu_cluster.cpus0.commitStats0.committedInstType::SimdFloatAdd            0      0.00%     80.38% # Class of committed instruction. (Count)
system.cpu_cluster.cpus0.commitStats0.committedInstType::SimdFloatAlu            0      0.00%     80.38% # Class of committed instruction. (Count)
system.cpu_cluster.cpus0.commitStats0.committedInstType::SimdFloatCmp            0      0.00%     80.38% # Class of committed instruction. (Count)
system.cpu_cluster.cpus0.commitStats0.committedInstType::SimdFloatCvt            0      0.00%     80.38% # Class of committed instruction. (Count)
system.cpu_cluster.cpus0.commitStats0.committedInstType::SimdFloatDiv            0      0.00%     80.38% # Class of committed instruction. (Count)
system.cpu_cluster.cpus0.commitStats0.committedInstType::SimdFloatMisc            0      0.00%     80.38% # Class of committed instruction. (Count)
system.cpu_cluster.cpus0.commitStats0.committedInstType::SimdFloatMult            0      0.00%     80.38% # Class of committed instruction. (Count)
system.cpu_cluster.cpus0.commitStats0.committedInstType::SimdFloatMultAcc            0      0.00%     80.38% # Class of committed instruction. (Count)
system.cpu_cluster.cpus0.commitStats0.committedInstType::SimdFloatMatMultAcc            0      0.00%     80.38% # Class of committed instruction. (Count)
system.cpu_cluster.cpus0.commitStats0.committedInstType::SimdFloatSqrt            0      0.00%     80.38% # Class of committed instruction. (Count)
system.cpu_cluster.cpus0.commitStats0.committedInstType::SimdReduceAdd            0      0.00%     80.38% # Class of committed instruction. (Count)
system.cpu_cluster.cpus0.commitStats0.committedInstType::SimdReduceAlu            0      0.00%     80.38% # Class of committed instruction. (Count)
system.cpu_cluster.cpus0.commitStats0.committedInstType::SimdReduceCmp            0      0.00%     80.38% # Class of committed instruction. (Count)
system.cpu_cluster.cpus0.commitStats0.committedInstType::SimdFloatReduceAdd            0      0.00%     80.38% # Class of committed instruction. (Count)
system.cpu_cluster.cpus0.commitStats0.committedInstType::SimdFloatReduceCmp            0      0.00%     80.38% # Class of committed instruction. (Count)
system.cpu_cluster.cpus0.commitStats0.committedInstType::SimdAes            0      0.00%     80.38% # Class of committed instruction. (Count)
system.cpu_cluster.cpus0.commitStats0.committedInstType::SimdAesMix            0      0.00%     80.38% # Class of committed instruction. (Count)
system.cpu_cluster.cpus0.commitStats0.committedInstType::SimdSha1Hash            0      0.00%     80.38% # Class of committed instruction. (Count)
system.cpu_cluster.cpus0.commitStats0.committedInstType::SimdSha1Hash2            0      0.00%     80.38% # Class of committed instruction. (Count)
system.cpu_cluster.cpus0.commitStats0.committedInstType::SimdSha256Hash            0      0.00%     80.38% # Class of committed instruction. (Count)
system.cpu_cluster.cpus0.commitStats0.committedInstType::SimdSha256Hash2            0      0.00%     80.38% # Class of committed instruction. (Count)
system.cpu_cluster.cpus0.commitStats0.committedInstType::SimdShaSigma2            0      0.00%     80.38% # Class of committed instruction. (Count)
system.cpu_cluster.cpus0.commitStats0.committedInstType::SimdShaSigma3            0      0.00%     80.38% # Class of committed instruction. (Count)
system.cpu_cluster.cpus0.commitStats0.committedInstType::SimdPredAlu            0      0.00%     80.38% # Class of committed instruction. (Count)
system.cpu_cluster.cpus0.commitStats0.committedInstType::Matrix            0      0.00%     80.38% # Class of committed instruction. (Count)
system.cpu_cluster.cpus0.commitStats0.committedInstType::MatrixMov            0      0.00%     80.38% # Class of committed instruction. (Count)
system.cpu_cluster.cpus0.commitStats0.committedInstType::MatrixOP            0      0.00%     80.38% # Class of committed instruction. (Count)
system.cpu_cluster.cpus0.commitStats0.committedInstType::MemRead      1799722     12.07%     92.44% # Class of committed instruction. (Count)
system.cpu_cluster.cpus0.commitStats0.committedInstType::MemWrite      1126778      7.56%    100.00% # Class of committed instruction. (Count)
system.cpu_cluster.cpus0.commitStats0.committedInstType::FloatMemRead            0      0.00%    100.00% # Class of committed instruction. (Count)
system.cpu_cluster.cpus0.commitStats0.committedInstType::FloatMemWrite            0      0.00%    100.00% # Class of committed instruction. (Count)
system.cpu_cluster.cpus0.commitStats0.committedInstType::IprAccess            0      0.00%    100.00% # Class of committed instruction. (Count)
system.cpu_cluster.cpus0.commitStats0.committedInstType::InstPrefetch            0      0.00%    100.00% # Class of committed instruction. (Count)
system.cpu_cluster.cpus0.commitStats0.committedInstType::VectorUnitStrideLoad            0      0.00%    100.00% # Class of committed instruction. (Count)
system.cpu_cluster.cpus0.commitStats0.committedInstType::VectorUnitStrideStore            0      0.00%    100.00% # Class of committed instruction. (Count)
system.cpu_cluster.cpus0.commitStats0.committedInstType::VectorUnitStrideMaskLoad            0      0.00%    100.00% # Class of committed instruction. (Count)
system.cpu_cluster.cpus0.commitStats0.committedInstType::VectorUnitStrideMaskStore            0      0.00%    100.00% # Class of committed instruction. (Count)
system.cpu_cluster.cpus0.commitStats0.committedInstType::VectorStridedLoad            0      0.00%    100.00% # Class of committed instruction. (Count)
system.cpu_cluster.cpus0.commitStats0.committedInstType::VectorStridedStore            0      0.00%    100.00% # Class of committed instruction. (Count)
system.cpu_cluster.cpus0.commitStats0.committedInstType::VectorIndexedLoad            0      0.00%    100.00% # Class of committed instruction. (Count)
system.cpu_cluster.cpus0.commitStats0.committedInstType::VectorIndexedStore            0      0.00%    100.00% # Class of committed instruction. (Count)
system.cpu_cluster.cpus0.commitStats0.committedInstType::VectorUnitStrideFaultOnlyFirstLoad            0      0.00%    100.00% # Class of committed instruction. (Count)
system.cpu_cluster.cpus0.commitStats0.committedInstType::VectorWholeRegisterLoad            0      0.00%    100.00% # Class of committed instruction. (Count)
system.cpu_cluster.cpus0.commitStats0.committedInstType::VectorWholeRegisterStore            0      0.00%    100.00% # Class of committed instruction. (Count)
system.cpu_cluster.cpus0.commitStats0.committedInstType::VectorIntegerArith            0      0.00%    100.00% # Class of committed instruction. (Count)
system.cpu_cluster.cpus0.commitStats0.committedInstType::VectorFloatArith            0      0.00%    100.00% # Class of committed instruction. (Count)
system.cpu_cluster.cpus0.commitStats0.committedInstType::VectorFloatConvert            0      0.00%    100.00% # Class of committed instruction. (Count)
system.cpu_cluster.cpus0.commitStats0.committedInstType::VectorIntegerReduce            0      0.00%    100.00% # Class of committed instruction. (Count)
system.cpu_cluster.cpus0.commitStats0.committedInstType::VectorFloatReduce            0      0.00%    100.00% # Class of committed instruction. (Count)
system.cpu_cluster.cpus0.commitStats0.committedInstType::VectorMisc            0      0.00%    100.00% # Class of committed instruction. (Count)
system.cpu_cluster.cpus0.commitStats0.committedInstType::VectorIntegerExtension            0      0.00%    100.00% # Class of committed instruction. (Count)
system.cpu_cluster.cpus0.commitStats0.committedInstType::VectorConfig            0      0.00%    100.00% # Class of committed instruction. (Count)
system.cpu_cluster.cpus0.commitStats0.committedInstType::total     14913431                       # Class of committed instruction. (Count)
system.cpu_cluster.cpus0.commitStats0.committedControl::IsControl      2437662                       # Class of control type instructions committed (Count)
system.cpu_cluster.cpus0.commitStats0.committedControl::IsDirectControl      1639304                       # Class of control type instructions committed (Count)
system.cpu_cluster.cpus0.commitStats0.committedControl::IsIndirectControl       798355                       # Class of control type instructions committed (Count)
system.cpu_cluster.cpus0.commitStats0.committedControl::IsCondControl      1436930                       # Class of control type instructions committed (Count)
system.cpu_cluster.cpus0.commitStats0.committedControl::IsUncondControl      1000729                       # Class of control type instructions committed (Count)
system.cpu_cluster.cpus0.commitStats0.committedControl::IsCall       476464                       # Class of control type instructions committed (Count)
system.cpu_cluster.cpus0.commitStats0.committedControl::IsReturn       476457                       # Class of control type instructions committed (Count)
system.cpu_cluster.cpus0.exec_context.thread_0.numMatAluAccesses            0                       # Number of matrix alu accesses (Count)
system.cpu_cluster.cpus0.exec_context.thread_0.numCallsReturns       952921                       # Number of times a function call or return occured (Count)
system.cpu_cluster.cpus0.exec_context.thread_0.numMatInsts            0                       # Number of matrix instructions (Count)
system.cpu_cluster.cpus0.exec_context.thread_0.numIdleCycles            0                       # Number of idle cycles (Cycle)
system.cpu_cluster.cpus0.exec_context.thread_0.numBusyCycles     14913431                       # Number of busy cycles (Cycle)
system.cpu_cluster.cpus0.exec_context.thread_0.notIdleFraction            1                       # Percentage of non-idle cycles (Ratio)
system.cpu_cluster.cpus0.exec_context.thread_0.idleFraction            0                       # Percentage of idle cycles (Ratio)
system.cpu_cluster.cpus0.executeStats0.numInsts            0                       # Number of executed instructions (Count)
system.cpu_cluster.cpus0.executeStats0.numNop            0                       # Number of nop insts executed (Count)
system.cpu_cluster.cpus0.executeStats0.numBranches            0                       # Number of branches executed (Count)
system.cpu_cluster.cpus0.executeStats0.numLoadInsts            0                       # Number of load instructions executed (Count)
system.cpu_cluster.cpus0.executeStats0.numStoreInsts      2926500                       # Number of stores executed (Count)
system.cpu_cluster.cpus0.executeStats0.instRate            0                       # Inst execution rate ((Count/Cycle))
system.cpu_cluster.cpus0.executeStats0.numFpRegWrites            0                       # Number of times the floating registers were written (Count)
system.cpu_cluster.cpus0.executeStats0.numIntAluAccesses     13775979                       # Number of integer alu accesses (Count)
system.cpu_cluster.cpus0.executeStats0.numIntRegReads     19426580                       # Number of times the integer registers were read (Count)
system.cpu_cluster.cpus0.executeStats0.numIntRegWrites     10960564                       # Number of times the integer registers were written (Count)
system.cpu_cluster.cpus0.executeStats0.numMemRefs      2926500                       # Number of memory refs (Count)
system.cpu_cluster.cpus0.executeStats0.numMiscRegReads         8812                       # Number of times the Misc registers were read (Count)
system.cpu_cluster.cpus0.executeStats0.numMiscRegWrites          136                       # Number of times the Misc registers were written (Count)
system.cpu_cluster.cpus0.executeStats0.numVecAluAccesses            0                       # Number of vector alu accesses (Count)
system.cpu_cluster.cpus0.executeStats0.numDiscardedOps            0                       # Number of ops (including micro ops) which were discarded before commit (Count)
system.cpu_cluster.cpus0.fetchStats0.numInsts     13611408                       # Number of instructions fetched (thread level) (Count)
system.cpu_cluster.cpus0.fetchStats0.numOps     14913431                       # Number of ops (including micro ops) fetched (thread level) (Count)
system.cpu_cluster.cpus0.fetchStats0.fetchRate     0.912695                       # Number of inst fetches per cycle ((Count/Cycle))
system.cpu_cluster.cpus0.fetchStats0.numBranches      2437662                       # Number of branches fetched (Count)
system.cpu_cluster.cpus0.fetchStats0.branchRate     0.163454                       # Number of branch fetches per cycle (Ratio)
system.cpu_cluster.cpus0.fetchStats0.numFetchSuspends            0                       # Number of times Execute suspended instruction fetching (Count)
system.cpu_cluster.cpus0.mmu.alignFaults            0                       # Number of MMU faults due to alignment restrictions (Count)
system.cpu_cluster.cpus0.mmu.prefetchFaults            0                       # Number of MMU faults due to prefetch (Count)
system.cpu_cluster.cpus0.mmu.domainFaults            0                       # Number of MMU faults due to domain restrictions (Count)
system.cpu_cluster.cpus0.mmu.permsFaults            0                       # Number of MMU faults due to permissions restrictions (Count)
system.cpu_cluster.cpus0.mmu.dtb.readHits      1804396                       # Read hits (Count)
system.cpu_cluster.cpus0.mmu.dtb.readMisses            4                       # Read misses (Count)
system.cpu_cluster.cpus0.mmu.dtb.writeHits      1125271                       # Write hits (Count)
system.cpu_cluster.cpus0.mmu.dtb.writeMisses            4                       # Write misses (Count)
system.cpu_cluster.cpus0.mmu.dtb.inserts            8                       # Number of times an entry is inserted into the TLB (Count)
system.cpu_cluster.cpus0.mmu.dtb.flushTlb            2                       # Number of times a TLB invalidation was requested (Count)
system.cpu_cluster.cpus0.mmu.dtb.flushedEntries            1                       # Number of entries that have been flushed from TLB (Count)
system.cpu_cluster.cpus0.mmu.dtb.readAccesses      1804400                       # Read accesses (Count)
system.cpu_cluster.cpus0.mmu.dtb.writeAccesses      1125275                       # Write accesses (Count)
system.cpu_cluster.cpus0.mmu.dtb.hits         2929667                       # Total TLB (inst and data) hits (Count)
system.cpu_cluster.cpus0.mmu.dtb.misses             8                       # Total TLB (inst and data) misses (Count)
system.cpu_cluster.cpus0.mmu.dtb.accesses      2929675                       # Total TLB (inst and data) accesses (Count)
system.cpu_cluster.cpus0.mmu.dtb_walker.walks            7                       # Table walker walks requested (Count)
system.cpu_cluster.cpus0.mmu.dtb_walker.walksLongDescriptor            7                       # Table walker walks initiated with long descriptors (Count)
system.cpu_cluster.cpus0.mmu.dtb_walker.walkWaitTime::samples            7                       # Table walker wait (enqueue to first request) latency (Tick)
system.cpu_cluster.cpus0.mmu.dtb_walker.walkWaitTime::0            7    100.00%    100.00% # Table walker wait (enqueue to first request) latency (Tick)
system.cpu_cluster.cpus0.mmu.dtb_walker.walkWaitTime::total            7                       # Table walker wait (enqueue to first request) latency (Tick)
system.cpu_cluster.cpus0.mmu.dtb_walker.pendingWalks::samples         4129                       # Table walker pending requests distribution (Tick)
system.cpu_cluster.cpus0.mmu.dtb_walker.pendingWalks::0         4129    100.00%    100.00% # Table walker pending requests distribution (Tick)
system.cpu_cluster.cpus0.mmu.dtb_walker.pendingWalks::total         4129                       # Table walker pending requests distribution (Tick)
system.cpu_cluster.cpus0.mmu.dtb_walker.pageSizes::4KiB            1     14.29%     14.29% # Table walker page sizes translated (Count)
system.cpu_cluster.cpus0.mmu.dtb_walker.pageSizes::2MiB            6     85.71%    100.00% # Table walker page sizes translated (Count)
system.cpu_cluster.cpus0.mmu.dtb_walker.pageSizes::total            7                       # Table walker page sizes translated (Count)
system.cpu_cluster.cpus0.mmu.dtb_walker.requestOrigin_Requested::Data            7                       # Table walker requests started/completed, data/inst (Count)
system.cpu_cluster.cpus0.mmu.dtb_walker.requestOrigin_Requested::Inst            0                       # Table walker requests started/completed, data/inst (Count)
system.cpu_cluster.cpus0.mmu.dtb_walker.requestOrigin_Requested::total            7                       # Table walker requests started/completed, data/inst (Count)
system.cpu_cluster.cpus0.mmu.dtb_walker.requestOrigin_Completed::Data            7                       # Table walker requests started/completed, data/inst (Count)
system.cpu_cluster.cpus0.mmu.dtb_walker.requestOrigin_Completed::Inst            0                       # Table walker requests started/completed, data/inst (Count)
system.cpu_cluster.cpus0.mmu.dtb_walker.requestOrigin_Completed::total            7                       # Table walker requests started/completed, data/inst (Count)
system.cpu_cluster.cpus0.mmu.dtb_walker.requestOrigin::total           14                       # Table walker requests started/completed, data/inst (Count)
system.cpu_cluster.cpus0.mmu.dtb_walker.power_state.pwrStateResidencyTicks::UNDEFINED     14913430                       # Cumulative time (in ticks) in various power states (Tick)
system.cpu_cluster.cpus0.mmu.itb.instHits     13608308                       # Inst hits (Count)
system.cpu_cluster.cpus0.mmu.itb.instMisses            5                       # Inst misses (Count)
system.cpu_cluster.cpus0.mmu.itb.inserts            5                       # Number of times an entry is inserted into the TLB (Count)
system.cpu_cluster.cpus0.mmu.itb.flushTlb            2                       # Number of times a TLB invalidation was requested (Count)
system.cpu_cluster.cpus0.mmu.itb.flushedEntries            0                       # Number of entries that have been flushed from TLB (Count)
system.cpu_cluster.cpus0.mmu.itb.instAccesses     13608313                       # Inst accesses (Count)
system.cpu_cluster.cpus0.mmu.itb.hits        13608308                       # Total TLB (inst and data) hits (Count)
system.cpu_cluster.cpus0.mmu.itb.misses             5                       # Total TLB (inst and data) misses (Count)
system.cpu_cluster.cpus0.mmu.itb.accesses     13608313                       # Total TLB (inst and data) accesses (Count)
system.cpu_cluster.cpus0.mmu.itb_walker.walks            2                       # Table walker walks requested (Count)
system.cpu_cluster.cpus0.mmu.itb_walker.walksLongDescriptor            2                       # Table walker walks initiated with long descriptors (Count)
system.cpu_cluster.cpus0.mmu.itb_walker.walkWaitTime::samples            2                       # Table walker wait (enqueue to first request) latency (Tick)
system.cpu_cluster.cpus0.mmu.itb_walker.walkWaitTime::0            2    100.00%    100.00% # Table walker wait (enqueue to first request) latency (Tick)
system.cpu_cluster.cpus0.mmu.itb_walker.walkWaitTime::total            2                       # Table walker wait (enqueue to first request) latency (Tick)
system.cpu_cluster.cpus0.mmu.itb_walker.pendingWalks::samples         4113                       # Table walker pending requests distribution (Tick)
system.cpu_cluster.cpus0.mmu.itb_walker.pendingWalks::0         4113    100.00%    100.00% # Table walker pending requests distribution (Tick)
system.cpu_cluster.cpus0.mmu.itb_walker.pendingWalks::total         4113                       # Table walker pending requests distribution (Tick)
system.cpu_cluster.cpus0.mmu.itb_walker.pageSizes::2MiB            2    100.00%    100.00% # Table walker page sizes translated (Count)
system.cpu_cluster.cpus0.mmu.itb_walker.pageSizes::total            2                       # Table walker page sizes translated (Count)
system.cpu_cluster.cpus0.mmu.itb_walker.requestOrigin_Requested::Data            0                       # Table walker requests started/completed, data/inst (Count)
system.cpu_cluster.cpus0.mmu.itb_walker.requestOrigin_Requested::Inst            2                       # Table walker requests started/completed, data/inst (Count)
system.cpu_cluster.cpus0.mmu.itb_walker.requestOrigin_Requested::total            2                       # Table walker requests started/completed, data/inst (Count)
system.cpu_cluster.cpus0.mmu.itb_walker.requestOrigin_Completed::Data            0                       # Table walker requests started/completed, data/inst (Count)
system.cpu_cluster.cpus0.mmu.itb_walker.requestOrigin_Completed::Inst            2                       # Table walker requests started/completed, data/inst (Count)
system.cpu_cluster.cpus0.mmu.itb_walker.requestOrigin_Completed::total            2                       # Table walker requests started/completed, data/inst (Count)
system.cpu_cluster.cpus0.mmu.itb_walker.requestOrigin::total            4                       # Table walker requests started/completed, data/inst (Count)
system.cpu_cluster.cpus0.mmu.itb_walker.power_state.pwrStateResidencyTicks::UNDEFINED     14913430                       # Cumulative time (in ticks) in various power states (Tick)
system.cpu_cluster.cpus0.mmu.l2_shared.instHits            3                       # Inst hits (Count)
system.cpu_cluster.cpus0.mmu.l2_shared.instMisses            2                       # Inst misses (Count)
system.cpu_cluster.cpus0.mmu.l2_shared.readHits            1                       # Read hits (Count)
system.cpu_cluster.cpus0.mmu.l2_shared.readMisses            3                       # Read misses (Count)
system.cpu_cluster.cpus0.mmu.l2_shared.writeMisses            4                       # Write misses (Count)
system.cpu_cluster.cpus0.mmu.l2_shared.inserts           10                       # Number of times an entry is inserted into the TLB (Count)
system.cpu_cluster.cpus0.mmu.l2_shared.flushTlb            2                       # Number of times a TLB invalidation was requested (Count)
system.cpu_cluster.cpus0.mmu.l2_shared.flushedEntries            1                       # Number of entries that have been flushed from TLB (Count)
system.cpu_cluster.cpus0.mmu.l2_shared.readAccesses            4                       # Read accesses (Count)
system.cpu_cluster.cpus0.mmu.l2_shared.writeAccesses            4                       # Write accesses (Count)
system.cpu_cluster.cpus0.mmu.l2_shared.instAccesses            5                       # Inst accesses (Count)
system.cpu_cluster.cpus0.mmu.l2_shared.hits            4                       # Total TLB (inst and data) hits (Count)
system.cpu_cluster.cpus0.mmu.l2_shared.misses            9                       # Total TLB (inst and data) misses (Count)
system.cpu_cluster.cpus0.mmu.l2_shared.accesses           13                       # Total TLB (inst and data) accesses (Count)
system.cpu_cluster.cpus0.mmu.stage2_dtb.readHits            0                       # Read hits (Count)
system.cpu_cluster.cpus0.mmu.stage2_dtb.readMisses            0                       # Read misses (Count)
system.cpu_cluster.cpus0.mmu.stage2_dtb.writeHits            0                       # Write hits (Count)
system.cpu_cluster.cpus0.mmu.stage2_dtb.writeMisses            0                       # Write misses (Count)
system.cpu_cluster.cpus0.mmu.stage2_dtb.inserts            0                       # Number of times an entry is inserted into the TLB (Count)
system.cpu_cluster.cpus0.mmu.stage2_dtb.flushTlb            0                       # Number of times a TLB invalidation was requested (Count)
system.cpu_cluster.cpus0.mmu.stage2_dtb.flushedEntries            0                       # Number of entries that have been flushed from TLB (Count)
system.cpu_cluster.cpus0.mmu.stage2_dtb.readAccesses            0                       # Read accesses (Count)
system.cpu_cluster.cpus0.mmu.stage2_dtb.writeAccesses            0                       # Write accesses (Count)
system.cpu_cluster.cpus0.mmu.stage2_dtb.hits            0                       # Total TLB (inst and data) hits (Count)
system.cpu_cluster.cpus0.mmu.stage2_dtb.misses            0                       # Total TLB (inst and data) misses (Count)
system.cpu_cluster.cpus0.mmu.stage2_dtb.accesses            0                       # Total TLB (inst and data) accesses (Count)
system.cpu_cluster.cpus0.mmu.stage2_dtb_walker.walks            0                       # Table walker walks requested (Count)
system.cpu_cluster.cpus0.mmu.stage2_dtb_walker.requestOrigin_Requested::Data            0                       # Table walker requests started/completed, data/inst (Count)
system.cpu_cluster.cpus0.mmu.stage2_dtb_walker.requestOrigin_Requested::Inst            0                       # Table walker requests started/completed, data/inst (Count)
system.cpu_cluster.cpus0.mmu.stage2_dtb_walker.requestOrigin_Requested::total            0                       # Table walker requests started/completed, data/inst (Count)
system.cpu_cluster.cpus0.mmu.stage2_dtb_walker.requestOrigin_Completed::Data            0                       # Table walker requests started/completed, data/inst (Count)
system.cpu_cluster.cpus0.mmu.stage2_dtb_walker.requestOrigin_Completed::Inst            0                       # Table walker requests started/completed, data/inst (Count)
system.cpu_cluster.cpus0.mmu.stage2_dtb_walker.requestOrigin_Completed::total            0                       # Table walker requests started/completed, data/inst (Count)
system.cpu_cluster.cpus0.mmu.stage2_dtb_walker.requestOrigin::total            0                       # Table walker requests started/completed, data/inst (Count)
system.cpu_cluster.cpus0.mmu.stage2_dtb_walker.power_state.pwrStateResidencyTicks::UNDEFINED     14913430                       # Cumulative time (in ticks) in various power states (Tick)
system.cpu_cluster.cpus0.mmu.stage2_itb.instHits            0                       # Inst hits (Count)
system.cpu_cluster.cpus0.mmu.stage2_itb.instMisses            0                       # Inst misses (Count)
system.cpu_cluster.cpus0.mmu.stage2_itb.inserts            0                       # Number of times an entry is inserted into the TLB (Count)
system.cpu_cluster.cpus0.mmu.stage2_itb.flushTlb            0                       # Number of times a TLB invalidation was requested (Count)
system.cpu_cluster.cpus0.mmu.stage2_itb.flushedEntries            0                       # Number of entries that have been flushed from TLB (Count)
system.cpu_cluster.cpus0.mmu.stage2_itb.instAccesses            0                       # Inst accesses (Count)
system.cpu_cluster.cpus0.mmu.stage2_itb.hits            0                       # Total TLB (inst and data) hits (Count)
system.cpu_cluster.cpus0.mmu.stage2_itb.misses            0                       # Total TLB (inst and data) misses (Count)
system.cpu_cluster.cpus0.mmu.stage2_itb.accesses            0                       # Total TLB (inst and data) accesses (Count)
system.cpu_cluster.cpus0.mmu.stage2_itb_walker.walks            0                       # Table walker walks requested (Count)
system.cpu_cluster.cpus0.mmu.stage2_itb_walker.requestOrigin_Requested::Data            0                       # Table walker requests started/completed, data/inst (Count)
system.cpu_cluster.cpus0.mmu.stage2_itb_walker.requestOrigin_Requested::Inst            0                       # Table walker requests started/completed, data/inst (Count)
system.cpu_cluster.cpus0.mmu.stage2_itb_walker.requestOrigin_Requested::total            0                       # Table walker requests started/completed, data/inst (Count)
system.cpu_cluster.cpus0.mmu.stage2_itb_walker.requestOrigin_Completed::Data            0                       # Table walker requests started/completed, data/inst (Count)
system.cpu_cluster.cpus0.mmu.stage2_itb_walker.requestOrigin_Completed::Inst            0                       # Table walker requests started/completed, data/inst (Count)
system.cpu_cluster.cpus0.mmu.stage2_itb_walker.requestOrigin_Completed::total            0                       # Table walker requests started/completed, data/inst (Count)
system.cpu_cluster.cpus0.mmu.stage2_itb_walker.requestOrigin::total            0                       # Table walker requests started/completed, data/inst (Count)
system.cpu_cluster.cpus0.mmu.stage2_itb_walker.power_state.pwrStateResidencyTicks::UNDEFINED     14913430                       # Cumulative time (in ticks) in various power states (Tick)
system.cpu_cluster.cpus0.power_state.pwrStateResidencyTicks::ON     14913430                       # Cumulative time (in ticks) in various power states (Tick)
system.cpu_cluster.cpus0.thread_0.numInsts            0                       # Number of Instructions committed (Count)
system.cpu_cluster.cpus0.thread_0.numOps            0                       # Number of Ops committed (Count)
system.cpu_cluster.cpus0.thread_0.numMemRefs            0                       # Number of Memory References (Count)
system.cpu_cluster.cpus1.numCycles                 47                       # Number of cpu cycles simulated (Cycle)
system.cpu_cluster.cpus1.cpi                 1.044444                       # CPI: cycles per instruction (core level) ((Cycle/Count))
system.cpu_cluster.cpus1.ipc                 0.957447                       # IPC: instructions per cycle (core level) ((Count/Cycle))
system.cpu_cluster.cpus1.numWorkItemsStarted            0                       # Number of work items this cpu started (Count)
system.cpu_cluster.cpus1.numWorkItemsCompleted            0                       # Number of work items this cpu completed (Count)
system.cpu_cluster.cpus1.commitStats0.numInsts           45                       # Number of instructions committed (thread level) (Count)
system.cpu_cluster.cpus1.commitStats0.numOps           45                       # Number of ops (including micro ops) committed (thread level) (Count)
system.cpu_cluster.cpus1.commitStats0.numInstsNotNOP            0                       # Number of instructions committed excluding NOPs or prefetches (Count)
system.cpu_cluster.cpus1.commitStats0.numOpsNotNOP            0                       # Number of Ops (including micro ops) Simulated (Count)
system.cpu_cluster.cpus1.commitStats0.cpi     1.044444                       # CPI: cycles per instruction (thread level) ((Cycle/Count))
system.cpu_cluster.cpus1.commitStats0.ipc     0.957447                       # IPC: instructions per cycle (thread level) ((Count/Cycle))
system.cpu_cluster.cpus1.commitStats0.numMemRefs            0                       # Number of memory references committed (Count)
system.cpu_cluster.cpus1.commitStats0.numFpInsts            0                       # Number of float instructions (Count)
system.cpu_cluster.cpus1.commitStats0.numIntInsts           38                       # Number of integer instructions (Count)
system.cpu_cluster.cpus1.commitStats0.numLoadInsts            4                       # Number of load instructions (Count)
system.cpu_cluster.cpus1.commitStats0.numStoreInsts            0                       # Number of store instructions (Count)
system.cpu_cluster.cpus1.commitStats0.numVecInsts            0                       # Number of vector instructions (Count)
system.cpu_cluster.cpus1.commitStats0.committedInstType::No_OpClass            0      0.00%      0.00% # Class of committed instruction. (Count)
system.cpu_cluster.cpus1.commitStats0.committedInstType::IntAlu           41     91.11%     91.11% # Class of committed instruction. (Count)
system.cpu_cluster.cpus1.commitStats0.committedInstType::IntMult            0      0.00%     91.11% # Class of committed instruction. (Count)
system.cpu_cluster.cpus1.commitStats0.committedInstType::IntDiv            0      0.00%     91.11% # Class of committed instruction. (Count)
system.cpu_cluster.cpus1.commitStats0.committedInstType::FloatAdd            0      0.00%     91.11% # Class of committed instruction. (Count)
system.cpu_cluster.cpus1.commitStats0.committedInstType::FloatCmp            0      0.00%     91.11% # Class of committed instruction. (Count)
system.cpu_cluster.cpus1.commitStats0.committedInstType::FloatCvt            0      0.00%     91.11% # Class of committed instruction. (Count)
system.cpu_cluster.cpus1.commitStats0.committedInstType::FloatMult            0      0.00%     91.11% # Class of committed instruction. (Count)
system.cpu_cluster.cpus1.commitStats0.committedInstType::FloatMultAcc            0      0.00%     91.11% # Class of committed instruction. (Count)
system.cpu_cluster.cpus1.commitStats0.committedInstType::FloatDiv            0      0.00%     91.11% # Class of committed instruction. (Count)
system.cpu_cluster.cpus1.commitStats0.committedInstType::FloatMisc            0      0.00%     91.11% # Class of committed instruction. (Count)
system.cpu_cluster.cpus1.commitStats0.committedInstType::FloatSqrt            0      0.00%     91.11% # Class of committed instruction. (Count)
system.cpu_cluster.cpus1.commitStats0.committedInstType::SimdAdd            0      0.00%     91.11% # Class of committed instruction. (Count)
system.cpu_cluster.cpus1.commitStats0.committedInstType::SimdAddAcc            0      0.00%     91.11% # Class of committed instruction. (Count)
system.cpu_cluster.cpus1.commitStats0.committedInstType::SimdAlu            0      0.00%     91.11% # Class of committed instruction. (Count)
system.cpu_cluster.cpus1.commitStats0.committedInstType::SimdCmp            0      0.00%     91.11% # Class of committed instruction. (Count)
system.cpu_cluster.cpus1.commitStats0.committedInstType::SimdCvt            0      0.00%     91.11% # Class of committed instruction. (Count)
system.cpu_cluster.cpus1.commitStats0.committedInstType::SimdMisc            0      0.00%     91.11% # Class of committed instruction. (Count)
system.cpu_cluster.cpus1.commitStats0.committedInstType::SimdMult            0      0.00%     91.11% # Class of committed instruction. (Count)
system.cpu_cluster.cpus1.commitStats0.committedInstType::SimdMultAcc            0      0.00%     91.11% # Class of committed instruction. (Count)
system.cpu_cluster.cpus1.commitStats0.committedInstType::SimdMatMultAcc            0      0.00%     91.11% # Class of committed instruction. (Count)
system.cpu_cluster.cpus1.commitStats0.committedInstType::SimdShift            0      0.00%     91.11% # Class of committed instruction. (Count)
system.cpu_cluster.cpus1.commitStats0.committedInstType::SimdShiftAcc            0      0.00%     91.11% # Class of committed instruction. (Count)
system.cpu_cluster.cpus1.commitStats0.committedInstType::SimdDiv            0      0.00%     91.11% # Class of committed instruction. (Count)
system.cpu_cluster.cpus1.commitStats0.committedInstType::SimdSqrt            0      0.00%     91.11% # Class of committed instruction. (Count)
system.cpu_cluster.cpus1.commitStats0.committedInstType::SimdFloatAdd            0      0.00%     91.11% # Class of committed instruction. (Count)
system.cpu_cluster.cpus1.commitStats0.committedInstType::SimdFloatAlu            0      0.00%     91.11% # Class of committed instruction. (Count)
system.cpu_cluster.cpus1.commitStats0.committedInstType::SimdFloatCmp            0      0.00%     91.11% # Class of committed instruction. (Count)
system.cpu_cluster.cpus1.commitStats0.committedInstType::SimdFloatCvt            0      0.00%     91.11% # Class of committed instruction. (Count)
system.cpu_cluster.cpus1.commitStats0.committedInstType::SimdFloatDiv            0      0.00%     91.11% # Class of committed instruction. (Count)
system.cpu_cluster.cpus1.commitStats0.committedInstType::SimdFloatMisc            0      0.00%     91.11% # Class of committed instruction. (Count)
system.cpu_cluster.cpus1.commitStats0.committedInstType::SimdFloatMult            0      0.00%     91.11% # Class of committed instruction. (Count)
system.cpu_cluster.cpus1.commitStats0.committedInstType::SimdFloatMultAcc            0      0.00%     91.11% # Class of committed instruction. (Count)
system.cpu_cluster.cpus1.commitStats0.committedInstType::SimdFloatMatMultAcc            0      0.00%     91.11% # Class of committed instruction. (Count)
system.cpu_cluster.cpus1.commitStats0.committedInstType::SimdFloatSqrt            0      0.00%     91.11% # Class of committed instruction. (Count)
system.cpu_cluster.cpus1.commitStats0.committedInstType::SimdReduceAdd            0      0.00%     91.11% # Class of committed instruction. (Count)
system.cpu_cluster.cpus1.commitStats0.committedInstType::SimdReduceAlu            0      0.00%     91.11% # Class of committed instruction. (Count)
system.cpu_cluster.cpus1.commitStats0.committedInstType::SimdReduceCmp            0      0.00%     91.11% # Class of committed instruction. (Count)
system.cpu_cluster.cpus1.commitStats0.committedInstType::SimdFloatReduceAdd            0      0.00%     91.11% # Class of committed instruction. (Count)
system.cpu_cluster.cpus1.commitStats0.committedInstType::SimdFloatReduceCmp            0      0.00%     91.11% # Class of committed instruction. (Count)
system.cpu_cluster.cpus1.commitStats0.committedInstType::SimdAes            0      0.00%     91.11% # Class of committed instruction. (Count)
system.cpu_cluster.cpus1.commitStats0.committedInstType::SimdAesMix            0      0.00%     91.11% # Class of committed instruction. (Count)
system.cpu_cluster.cpus1.commitStats0.committedInstType::SimdSha1Hash            0      0.00%     91.11% # Class of committed instruction. (Count)
system.cpu_cluster.cpus1.commitStats0.committedInstType::SimdSha1Hash2            0      0.00%     91.11% # Class of committed instruction. (Count)
system.cpu_cluster.cpus1.commitStats0.committedInstType::SimdSha256Hash            0      0.00%     91.11% # Class of committed instruction. (Count)
system.cpu_cluster.cpus1.commitStats0.committedInstType::SimdSha256Hash2            0      0.00%     91.11% # Class of committed instruction. (Count)
system.cpu_cluster.cpus1.commitStats0.committedInstType::SimdShaSigma2            0      0.00%     91.11% # Class of committed instruction. (Count)
system.cpu_cluster.cpus1.commitStats0.committedInstType::SimdShaSigma3            0      0.00%     91.11% # Class of committed instruction. (Count)
system.cpu_cluster.cpus1.commitStats0.committedInstType::SimdPredAlu            0      0.00%     91.11% # Class of committed instruction. (Count)
system.cpu_cluster.cpus1.commitStats0.committedInstType::Matrix            0      0.00%     91.11% # Class of committed instruction. (Count)
system.cpu_cluster.cpus1.commitStats0.committedInstType::MatrixMov            0      0.00%     91.11% # Class of committed instruction. (Count)
system.cpu_cluster.cpus1.commitStats0.committedInstType::MatrixOP            0      0.00%     91.11% # Class of committed instruction. (Count)
system.cpu_cluster.cpus1.commitStats0.committedInstType::MemRead            4      8.89%    100.00% # Class of committed instruction. (Count)
system.cpu_cluster.cpus1.commitStats0.committedInstType::MemWrite            0      0.00%    100.00% # Class of committed instruction. (Count)
system.cpu_cluster.cpus1.commitStats0.committedInstType::FloatMemRead            0      0.00%    100.00% # Class of committed instruction. (Count)
system.cpu_cluster.cpus1.commitStats0.committedInstType::FloatMemWrite            0      0.00%    100.00% # Class of committed instruction. (Count)
system.cpu_cluster.cpus1.commitStats0.committedInstType::IprAccess            0      0.00%    100.00% # Class of committed instruction. (Count)
system.cpu_cluster.cpus1.commitStats0.committedInstType::InstPrefetch            0      0.00%    100.00% # Class of committed instruction. (Count)
system.cpu_cluster.cpus1.commitStats0.committedInstType::VectorUnitStrideLoad            0      0.00%    100.00% # Class of committed instruction. (Count)
system.cpu_cluster.cpus1.commitStats0.committedInstType::VectorUnitStrideStore            0      0.00%    100.00% # Class of committed instruction. (Count)
system.cpu_cluster.cpus1.commitStats0.committedInstType::VectorUnitStrideMaskLoad            0      0.00%    100.00% # Class of committed instruction. (Count)
system.cpu_cluster.cpus1.commitStats0.committedInstType::VectorUnitStrideMaskStore            0      0.00%    100.00% # Class of committed instruction. (Count)
system.cpu_cluster.cpus1.commitStats0.committedInstType::VectorStridedLoad            0      0.00%    100.00% # Class of committed instruction. (Count)
system.cpu_cluster.cpus1.commitStats0.committedInstType::VectorStridedStore            0      0.00%    100.00% # Class of committed instruction. (Count)
system.cpu_cluster.cpus1.commitStats0.committedInstType::VectorIndexedLoad            0      0.00%    100.00% # Class of committed instruction. (Count)
system.cpu_cluster.cpus1.commitStats0.committedInstType::VectorIndexedStore            0      0.00%    100.00% # Class of committed instruction. (Count)
system.cpu_cluster.cpus1.commitStats0.committedInstType::VectorUnitStrideFaultOnlyFirstLoad            0      0.00%    100.00% # Class of committed instruction. (Count)
system.cpu_cluster.cpus1.commitStats0.committedInstType::VectorWholeRegisterLoad            0      0.00%    100.00% # Class of committed instruction. (Count)
system.cpu_cluster.cpus1.commitStats0.committedInstType::VectorWholeRegisterStore            0      0.00%    100.00% # Class of committed instruction. (Count)
system.cpu_cluster.cpus1.commitStats0.committedInstType::VectorIntegerArith            0      0.00%    100.00% # Class of committed instruction. (Count)
system.cpu_cluster.cpus1.commitStats0.committedInstType::VectorFloatArith            0      0.00%    100.00% # Class of committed instruction. (Count)
system.cpu_cluster.cpus1.commitStats0.committedInstType::VectorFloatConvert            0      0.00%    100.00% # Class of committed instruction. (Count)
system.cpu_cluster.cpus1.commitStats0.committedInstType::VectorIntegerReduce            0      0.00%    100.00% # Class of committed instruction. (Count)
system.cpu_cluster.cpus1.commitStats0.committedInstType::VectorFloatReduce            0      0.00%    100.00% # Class of committed instruction. (Count)
system.cpu_cluster.cpus1.commitStats0.committedInstType::VectorMisc            0      0.00%    100.00% # Class of committed instruction. (Count)
system.cpu_cluster.cpus1.commitStats0.committedInstType::VectorIntegerExtension            0      0.00%    100.00% # Class of committed instruction. (Count)
system.cpu_cluster.cpus1.commitStats0.committedInstType::VectorConfig            0      0.00%    100.00% # Class of committed instruction. (Count)
system.cpu_cluster.cpus1.commitStats0.committedInstType::total           45                       # Class of committed instruction. (Count)
system.cpu_cluster.cpus1.commitStats0.committedControl::IsControl            5                       # Class of control type instructions committed (Count)
system.cpu_cluster.cpus1.commitStats0.committedControl::IsDirectControl            4                       # Class of control type instructions committed (Count)
system.cpu_cluster.cpus1.commitStats0.committedControl::IsCondControl            4                       # Class of control type instructions committed (Count)
system.cpu_cluster.cpus1.exec_context.thread_0.numMatAluAccesses            0                       # Number of matrix alu accesses (Count)
system.cpu_cluster.cpus1.exec_context.thread_0.numCallsReturns            0                       # Number of times a function call or return occured (Count)
system.cpu_cluster.cpus1.exec_context.thread_0.numMatInsts            0                       # Number of matrix instructions (Count)
system.cpu_cluster.cpus1.exec_context.thread_0.numIdleCycles    46.999864                       # Number of idle cycles (Cycle)
system.cpu_cluster.cpus1.exec_context.thread_0.numBusyCycles     0.000136                       # Number of busy cycles (Cycle)
system.cpu_cluster.cpus1.exec_context.thread_0.notIdleFraction     0.000003                       # Percentage of non-idle cycles (Ratio)
system.cpu_cluster.cpus1.exec_context.thread_0.idleFraction     0.999997                       # Percentage of idle cycles (Ratio)
system.cpu_cluster.cpus1.executeStats0.numInsts            0                       # Number of executed instructions (Count)
system.cpu_cluster.cpus1.executeStats0.numNop            0                       # Number of nop insts executed (Count)
system.cpu_cluster.cpus1.executeStats0.numBranches            0                       # Number of branches executed (Count)
system.cpu_cluster.cpus1.executeStats0.numLoadInsts            0                       # Number of load instructions executed (Count)
system.cpu_cluster.cpus1.executeStats0.numStoreInsts            4                       # Number of stores executed (Count)
system.cpu_cluster.cpus1.executeStats0.instRate            0                       # Inst execution rate ((Count/Cycle))
system.cpu_cluster.cpus1.executeStats0.numFpRegWrites            0                       # Number of times the floating registers were written (Count)
system.cpu_cluster.cpus1.executeStats0.numIntAluAccesses           38                       # Number of integer alu accesses (Count)
system.cpu_cluster.cpus1.executeStats0.numIntRegReads           23                       # Number of times the integer registers were read (Count)
system.cpu_cluster.cpus1.executeStats0.numIntRegWrites           26                       # Number of times the integer registers were written (Count)
system.cpu_cluster.cpus1.executeStats0.numMemRefs            4                       # Number of memory refs (Count)
system.cpu_cluster.cpus1.executeStats0.numMiscRegReads           24                       # Number of times the Misc registers were read (Count)
system.cpu_cluster.cpus1.executeStats0.numMiscRegWrites           13                       # Number of times the Misc registers were written (Count)
system.cpu_cluster.cpus1.executeStats0.numVecAluAccesses            0                       # Number of vector alu accesses (Count)
system.cpu_cluster.cpus1.executeStats0.numDiscardedOps            0                       # Number of ops (including micro ops) which were discarded before commit (Count)
system.cpu_cluster.cpus1.fetchStats0.numInsts           45                       # Number of instructions fetched (thread level) (Count)
system.cpu_cluster.cpus1.fetchStats0.numOps           45                       # Number of ops (including micro ops) fetched (thread level) (Count)
system.cpu_cluster.cpus1.fetchStats0.fetchRate     0.957447                       # Number of inst fetches per cycle ((Count/Cycle))
system.cpu_cluster.cpus1.fetchStats0.numBranches            5                       # Number of branches fetched (Count)
system.cpu_cluster.cpus1.fetchStats0.branchRate     0.106383                       # Number of branch fetches per cycle (Ratio)
system.cpu_cluster.cpus1.fetchStats0.numFetchSuspends            0                       # Number of times Execute suspended instruction fetching (Count)
system.cpu_cluster.cpus1.mmu.alignFaults            0                       # Number of MMU faults due to alignment restrictions (Count)
system.cpu_cluster.cpus1.mmu.prefetchFaults            0                       # Number of MMU faults due to prefetch (Count)
system.cpu_cluster.cpus1.mmu.domainFaults            0                       # Number of MMU faults due to domain restrictions (Count)
system.cpu_cluster.cpus1.mmu.permsFaults            0                       # Number of MMU faults due to permissions restrictions (Count)
system.cpu_cluster.cpus1.mmu.dtb.readHits            0                       # Read hits (Count)
system.cpu_cluster.cpus1.mmu.dtb.readMisses            0                       # Read misses (Count)
system.cpu_cluster.cpus1.mmu.dtb.writeHits            0                       # Write hits (Count)
system.cpu_cluster.cpus1.mmu.dtb.writeMisses            0                       # Write misses (Count)
system.cpu_cluster.cpus1.mmu.dtb.inserts            0                       # Number of times an entry is inserted into the TLB (Count)
system.cpu_cluster.cpus1.mmu.dtb.flushTlb            1                       # Number of times a TLB invalidation was requested (Count)
system.cpu_cluster.cpus1.mmu.dtb.flushedEntries            0                       # Number of entries that have been flushed from TLB (Count)
system.cpu_cluster.cpus1.mmu.dtb.readAccesses            0                       # Read accesses (Count)
system.cpu_cluster.cpus1.mmu.dtb.writeAccesses            0                       # Write accesses (Count)
system.cpu_cluster.cpus1.mmu.dtb.hits               0                       # Total TLB (inst and data) hits (Count)
system.cpu_cluster.cpus1.mmu.dtb.misses             0                       # Total TLB (inst and data) misses (Count)
system.cpu_cluster.cpus1.mmu.dtb.accesses            0                       # Total TLB (inst and data) accesses (Count)
system.cpu_cluster.cpus1.mmu.dtb_walker.walks            0                       # Table walker walks requested (Count)
system.cpu_cluster.cpus1.mmu.dtb_walker.requestOrigin_Requested::Data            0                       # Table walker requests started/completed, data/inst (Count)
system.cpu_cluster.cpus1.mmu.dtb_walker.requestOrigin_Requested::Inst            0                       # Table walker requests started/completed, data/inst (Count)
system.cpu_cluster.cpus1.mmu.dtb_walker.requestOrigin_Requested::total            0                       # Table walker requests started/completed, data/inst (Count)
system.cpu_cluster.cpus1.mmu.dtb_walker.requestOrigin_Completed::Data            0                       # Table walker requests started/completed, data/inst (Count)
system.cpu_cluster.cpus1.mmu.dtb_walker.requestOrigin_Completed::Inst            0                       # Table walker requests started/completed, data/inst (Count)
system.cpu_cluster.cpus1.mmu.dtb_walker.requestOrigin_Completed::total            0                       # Table walker requests started/completed, data/inst (Count)
system.cpu_cluster.cpus1.mmu.dtb_walker.requestOrigin::total            0                       # Table walker requests started/completed, data/inst (Count)
system.cpu_cluster.cpus1.mmu.dtb_walker.power_state.pwrStateResidencyTicks::UNDEFINED     14913430                       # Cumulative time (in ticks) in various power states (Tick)
system.cpu_cluster.cpus1.mmu.itb.instHits            0                       # Inst hits (Count)
system.cpu_cluster.cpus1.mmu.itb.instMisses            0                       # Inst misses (Count)
system.cpu_cluster.cpus1.mmu.itb.inserts            0                       # Number of times an entry is inserted into the TLB (Count)
system.cpu_cluster.cpus1.mmu.itb.flushTlb            1                       # Number of times a TLB invalidation was requested (Count)
system.cpu_cluster.cpus1.mmu.itb.flushedEntries            0                       # Number of entries that have been flushed from TLB (Count)
system.cpu_cluster.cpus1.mmu.itb.instAccesses            0                       # Inst accesses (Count)
system.cpu_cluster.cpus1.mmu.itb.hits               0                       # Total TLB (inst and data) hits (Count)
system.cpu_cluster.cpus1.mmu.itb.misses             0                       # Total TLB (inst and data) misses (Count)
system.cpu_cluster.cpus1.mmu.itb.accesses            0                       # Total TLB (inst and data) accesses (Count)
system.cpu_cluster.cpus1.mmu.itb_walker.walks            0                       # Table walker walks requested (Count)
system.cpu_cluster.cpus1.mmu.itb_walker.requestOrigin_Requested::Data            0                       # Table walker requests started/completed, data/inst (Count)
system.cpu_cluster.cpus1.mmu.itb_walker.requestOrigin_Requested::Inst            0                       # Table walker requests started/completed, data/inst (Count)
system.cpu_cluster.cpus1.mmu.itb_walker.requestOrigin_Requested::total            0                       # Table walker requests started/completed, data/inst (Count)
system.cpu_cluster.cpus1.mmu.itb_walker.requestOrigin_Completed::Data            0                       # Table walker requests started/completed, data/inst (Count)
system.cpu_cluster.cpus1.mmu.itb_walker.requestOrigin_Completed::Inst            0                       # Table walker requests started/completed, data/inst (Count)
system.cpu_cluster.cpus1.mmu.itb_walker.requestOrigin_Completed::total            0                       # Table walker requests started/completed, data/inst (Count)
system.cpu_cluster.cpus1.mmu.itb_walker.requestOrigin::total            0                       # Table walker requests started/completed, data/inst (Count)
system.cpu_cluster.cpus1.mmu.itb_walker.power_state.pwrStateResidencyTicks::UNDEFINED     14913430                       # Cumulative time (in ticks) in various power states (Tick)
system.cpu_cluster.cpus1.mmu.l2_shared.instHits            0                       # Inst hits (Count)
system.cpu_cluster.cpus1.mmu.l2_shared.instMisses            0                       # Inst misses (Count)
system.cpu_cluster.cpus1.mmu.l2_shared.inserts            0                       # Number of times an entry is inserted into the TLB (Count)
system.cpu_cluster.cpus1.mmu.l2_shared.flushTlb            1                       # Number of times a TLB invalidation was requested (Count)
system.cpu_cluster.cpus1.mmu.l2_shared.flushedEntries            0                       # Number of entries that have been flushed from TLB (Count)
system.cpu_cluster.cpus1.mmu.l2_shared.instAccesses            0                       # Inst accesses (Count)
system.cpu_cluster.cpus1.mmu.l2_shared.hits            0                       # Total TLB (inst and data) hits (Count)
system.cpu_cluster.cpus1.mmu.l2_shared.misses            0                       # Total TLB (inst and data) misses (Count)
system.cpu_cluster.cpus1.mmu.l2_shared.accesses            0                       # Total TLB (inst and data) accesses (Count)
system.cpu_cluster.cpus1.mmu.stage2_dtb.readHits            0                       # Read hits (Count)
system.cpu_cluster.cpus1.mmu.stage2_dtb.readMisses            0                       # Read misses (Count)
system.cpu_cluster.cpus1.mmu.stage2_dtb.writeHits            0                       # Write hits (Count)
system.cpu_cluster.cpus1.mmu.stage2_dtb.writeMisses            0                       # Write misses (Count)
system.cpu_cluster.cpus1.mmu.stage2_dtb.inserts            0                       # Number of times an entry is inserted into the TLB (Count)
system.cpu_cluster.cpus1.mmu.stage2_dtb.flushTlb            0                       # Number of times a TLB invalidation was requested (Count)
system.cpu_cluster.cpus1.mmu.stage2_dtb.flushedEntries            0                       # Number of entries that have been flushed from TLB (Count)
system.cpu_cluster.cpus1.mmu.stage2_dtb.readAccesses            0                       # Read accesses (Count)
system.cpu_cluster.cpus1.mmu.stage2_dtb.writeAccesses            0                       # Write accesses (Count)
system.cpu_cluster.cpus1.mmu.stage2_dtb.hits            0                       # Total TLB (inst and data) hits (Count)
system.cpu_cluster.cpus1.mmu.stage2_dtb.misses            0                       # Total TLB (inst and data) misses (Count)
system.cpu_cluster.cpus1.mmu.stage2_dtb.accesses            0                       # Total TLB (inst and data) accesses (Count)
system.cpu_cluster.cpus1.mmu.stage2_dtb_walker.walks            0                       # Table walker walks requested (Count)
system.cpu_cluster.cpus1.mmu.stage2_dtb_walker.requestOrigin_Requested::Data            0                       # Table walker requests started/completed, data/inst (Count)
system.cpu_cluster.cpus1.mmu.stage2_dtb_walker.requestOrigin_Requested::Inst            0                       # Table walker requests started/completed, data/inst (Count)
system.cpu_cluster.cpus1.mmu.stage2_dtb_walker.requestOrigin_Requested::total            0                       # Table walker requests started/completed, data/inst (Count)
system.cpu_cluster.cpus1.mmu.stage2_dtb_walker.requestOrigin_Completed::Data            0                       # Table walker requests started/completed, data/inst (Count)
system.cpu_cluster.cpus1.mmu.stage2_dtb_walker.requestOrigin_Completed::Inst            0                       # Table walker requests started/completed, data/inst (Count)
system.cpu_cluster.cpus1.mmu.stage2_dtb_walker.requestOrigin_Completed::total            0                       # Table walker requests started/completed, data/inst (Count)
system.cpu_cluster.cpus1.mmu.stage2_dtb_walker.requestOrigin::total            0                       # Table walker requests started/completed, data/inst (Count)
system.cpu_cluster.cpus1.mmu.stage2_dtb_walker.power_state.pwrStateResidencyTicks::UNDEFINED     14913430                       # Cumulative time (in ticks) in various power states (Tick)
system.cpu_cluster.cpus1.mmu.stage2_itb.instHits            0                       # Inst hits (Count)
system.cpu_cluster.cpus1.mmu.stage2_itb.instMisses            0                       # Inst misses (Count)
system.cpu_cluster.cpus1.mmu.stage2_itb.inserts            0                       # Number of times an entry is inserted into the TLB (Count)
system.cpu_cluster.cpus1.mmu.stage2_itb.flushTlb            0                       # Number of times a TLB invalidation was requested (Count)
system.cpu_cluster.cpus1.mmu.stage2_itb.flushedEntries            0                       # Number of entries that have been flushed from TLB (Count)
system.cpu_cluster.cpus1.mmu.stage2_itb.instAccesses            0                       # Inst accesses (Count)
system.cpu_cluster.cpus1.mmu.stage2_itb.hits            0                       # Total TLB (inst and data) hits (Count)
system.cpu_cluster.cpus1.mmu.stage2_itb.misses            0                       # Total TLB (inst and data) misses (Count)
system.cpu_cluster.cpus1.mmu.stage2_itb.accesses            0                       # Total TLB (inst and data) accesses (Count)
system.cpu_cluster.cpus1.mmu.stage2_itb_walker.walks            0                       # Table walker walks requested (Count)
system.cpu_cluster.cpus1.mmu.stage2_itb_walker.requestOrigin_Requested::Data            0                       # Table walker requests started/completed, data/inst (Count)
system.cpu_cluster.cpus1.mmu.stage2_itb_walker.requestOrigin_Requested::Inst            0                       # Table walker requests started/completed, data/inst (Count)
system.cpu_cluster.cpus1.mmu.stage2_itb_walker.requestOrigin_Requested::total            0                       # Table walker requests started/completed, data/inst (Count)
system.cpu_cluster.cpus1.mmu.stage2_itb_walker.requestOrigin_Completed::Data            0                       # Table walker requests started/completed, data/inst (Count)
system.cpu_cluster.cpus1.mmu.stage2_itb_walker.requestOrigin_Completed::Inst            0                       # Table walker requests started/completed, data/inst (Count)
system.cpu_cluster.cpus1.mmu.stage2_itb_walker.requestOrigin_Completed::total            0                       # Table walker requests started/completed, data/inst (Count)
system.cpu_cluster.cpus1.mmu.stage2_itb_walker.requestOrigin::total            0                       # Table walker requests started/completed, data/inst (Count)
system.cpu_cluster.cpus1.mmu.stage2_itb_walker.power_state.pwrStateResidencyTicks::UNDEFINED     14913430                       # Cumulative time (in ticks) in various power states (Tick)
system.cpu_cluster.cpus1.power_state.numTransitions            3                       # Number of power state transitions (Count)
system.cpu_cluster.cpus1.power_state.ticksClkGated::samples            2                       # Distribution of time spent in the clock gated state (Tick)
system.cpu_cluster.cpus1.power_state.ticksClkGated::mean 7456693.500000                       # Distribution of time spent in the clock gated state (Tick)
system.cpu_cluster.cpus1.power_state.ticksClkGated::stdev 10545354.249732                       # Distribution of time spent in the clock gated state (Tick)
system.cpu_cluster.cpus1.power_state.ticksClkGated::2-7.5e+07            2    100.00%    100.00% # Distribution of time spent in the clock gated state (Tick)
system.cpu_cluster.cpus1.power_state.ticksClkGated::min_value            2                       # Distribution of time spent in the clock gated state (Tick)
system.cpu_cluster.cpus1.power_state.ticksClkGated::max_value     14913385                       # Distribution of time spent in the clock gated state (Tick)
system.cpu_cluster.cpus1.power_state.ticksClkGated::total            2                       # Distribution of time spent in the clock gated state (Tick)
system.cpu_cluster.cpus1.power_state.pwrStateResidencyTicks::ON           43                       # Cumulative time (in ticks) in various power states (Tick)
system.cpu_cluster.cpus1.power_state.pwrStateResidencyTicks::CLK_GATED     14913387                       # Cumulative time (in ticks) in various power states (Tick)
system.cpu_cluster.cpus1.thread_0.numInsts            0                       # Number of Instructions committed (Count)
system.cpu_cluster.cpus1.thread_0.numOps            0                       # Number of Ops committed (Count)
system.cpu_cluster.cpus1.thread_0.numMemRefs            0                       # Number of Memory References (Count)
system.cpu_cluster.cpus2.numCycles                 47                       # Number of cpu cycles simulated (Cycle)
system.cpu_cluster.cpus2.cpi                 1.044444                       # CPI: cycles per instruction (core level) ((Cycle/Count))
system.cpu_cluster.cpus2.ipc                 0.957447                       # IPC: instructions per cycle (core level) ((Count/Cycle))
system.cpu_cluster.cpus2.numWorkItemsStarted            0                       # Number of work items this cpu started (Count)
system.cpu_cluster.cpus2.numWorkItemsCompleted            0                       # Number of work items this cpu completed (Count)
system.cpu_cluster.cpus2.commitStats0.numInsts           45                       # Number of instructions committed (thread level) (Count)
system.cpu_cluster.cpus2.commitStats0.numOps           45                       # Number of ops (including micro ops) committed (thread level) (Count)
system.cpu_cluster.cpus2.commitStats0.numInstsNotNOP            0                       # Number of instructions committed excluding NOPs or prefetches (Count)
system.cpu_cluster.cpus2.commitStats0.numOpsNotNOP            0                       # Number of Ops (including micro ops) Simulated (Count)
system.cpu_cluster.cpus2.commitStats0.cpi     1.044444                       # CPI: cycles per instruction (thread level) ((Cycle/Count))
system.cpu_cluster.cpus2.commitStats0.ipc     0.957447                       # IPC: instructions per cycle (thread level) ((Count/Cycle))
system.cpu_cluster.cpus2.commitStats0.numMemRefs            0                       # Number of memory references committed (Count)
system.cpu_cluster.cpus2.commitStats0.numFpInsts            0                       # Number of float instructions (Count)
system.cpu_cluster.cpus2.commitStats0.numIntInsts           38                       # Number of integer instructions (Count)
system.cpu_cluster.cpus2.commitStats0.numLoadInsts            4                       # Number of load instructions (Count)
system.cpu_cluster.cpus2.commitStats0.numStoreInsts            0                       # Number of store instructions (Count)
system.cpu_cluster.cpus2.commitStats0.numVecInsts            0                       # Number of vector instructions (Count)
system.cpu_cluster.cpus2.commitStats0.committedInstType::No_OpClass            0      0.00%      0.00% # Class of committed instruction. (Count)
system.cpu_cluster.cpus2.commitStats0.committedInstType::IntAlu           41     91.11%     91.11% # Class of committed instruction. (Count)
system.cpu_cluster.cpus2.commitStats0.committedInstType::IntMult            0      0.00%     91.11% # Class of committed instruction. (Count)
system.cpu_cluster.cpus2.commitStats0.committedInstType::IntDiv            0      0.00%     91.11% # Class of committed instruction. (Count)
system.cpu_cluster.cpus2.commitStats0.committedInstType::FloatAdd            0      0.00%     91.11% # Class of committed instruction. (Count)
system.cpu_cluster.cpus2.commitStats0.committedInstType::FloatCmp            0      0.00%     91.11% # Class of committed instruction. (Count)
system.cpu_cluster.cpus2.commitStats0.committedInstType::FloatCvt            0      0.00%     91.11% # Class of committed instruction. (Count)
system.cpu_cluster.cpus2.commitStats0.committedInstType::FloatMult            0      0.00%     91.11% # Class of committed instruction. (Count)
system.cpu_cluster.cpus2.commitStats0.committedInstType::FloatMultAcc            0      0.00%     91.11% # Class of committed instruction. (Count)
system.cpu_cluster.cpus2.commitStats0.committedInstType::FloatDiv            0      0.00%     91.11% # Class of committed instruction. (Count)
system.cpu_cluster.cpus2.commitStats0.committedInstType::FloatMisc            0      0.00%     91.11% # Class of committed instruction. (Count)
system.cpu_cluster.cpus2.commitStats0.committedInstType::FloatSqrt            0      0.00%     91.11% # Class of committed instruction. (Count)
system.cpu_cluster.cpus2.commitStats0.committedInstType::SimdAdd            0      0.00%     91.11% # Class of committed instruction. (Count)
system.cpu_cluster.cpus2.commitStats0.committedInstType::SimdAddAcc            0      0.00%     91.11% # Class of committed instruction. (Count)
system.cpu_cluster.cpus2.commitStats0.committedInstType::SimdAlu            0      0.00%     91.11% # Class of committed instruction. (Count)
system.cpu_cluster.cpus2.commitStats0.committedInstType::SimdCmp            0      0.00%     91.11% # Class of committed instruction. (Count)
system.cpu_cluster.cpus2.commitStats0.committedInstType::SimdCvt            0      0.00%     91.11% # Class of committed instruction. (Count)
system.cpu_cluster.cpus2.commitStats0.committedInstType::SimdMisc            0      0.00%     91.11% # Class of committed instruction. (Count)
system.cpu_cluster.cpus2.commitStats0.committedInstType::SimdMult            0      0.00%     91.11% # Class of committed instruction. (Count)
system.cpu_cluster.cpus2.commitStats0.committedInstType::SimdMultAcc            0      0.00%     91.11% # Class of committed instruction. (Count)
system.cpu_cluster.cpus2.commitStats0.committedInstType::SimdMatMultAcc            0      0.00%     91.11% # Class of committed instruction. (Count)
system.cpu_cluster.cpus2.commitStats0.committedInstType::SimdShift            0      0.00%     91.11% # Class of committed instruction. (Count)
system.cpu_cluster.cpus2.commitStats0.committedInstType::SimdShiftAcc            0      0.00%     91.11% # Class of committed instruction. (Count)
system.cpu_cluster.cpus2.commitStats0.committedInstType::SimdDiv            0      0.00%     91.11% # Class of committed instruction. (Count)
system.cpu_cluster.cpus2.commitStats0.committedInstType::SimdSqrt            0      0.00%     91.11% # Class of committed instruction. (Count)
system.cpu_cluster.cpus2.commitStats0.committedInstType::SimdFloatAdd            0      0.00%     91.11% # Class of committed instruction. (Count)
system.cpu_cluster.cpus2.commitStats0.committedInstType::SimdFloatAlu            0      0.00%     91.11% # Class of committed instruction. (Count)
system.cpu_cluster.cpus2.commitStats0.committedInstType::SimdFloatCmp            0      0.00%     91.11% # Class of committed instruction. (Count)
system.cpu_cluster.cpus2.commitStats0.committedInstType::SimdFloatCvt            0      0.00%     91.11% # Class of committed instruction. (Count)
system.cpu_cluster.cpus2.commitStats0.committedInstType::SimdFloatDiv            0      0.00%     91.11% # Class of committed instruction. (Count)
system.cpu_cluster.cpus2.commitStats0.committedInstType::SimdFloatMisc            0      0.00%     91.11% # Class of committed instruction. (Count)
system.cpu_cluster.cpus2.commitStats0.committedInstType::SimdFloatMult            0      0.00%     91.11% # Class of committed instruction. (Count)
system.cpu_cluster.cpus2.commitStats0.committedInstType::SimdFloatMultAcc            0      0.00%     91.11% # Class of committed instruction. (Count)
system.cpu_cluster.cpus2.commitStats0.committedInstType::SimdFloatMatMultAcc            0      0.00%     91.11% # Class of committed instruction. (Count)
system.cpu_cluster.cpus2.commitStats0.committedInstType::SimdFloatSqrt            0      0.00%     91.11% # Class of committed instruction. (Count)
system.cpu_cluster.cpus2.commitStats0.committedInstType::SimdReduceAdd            0      0.00%     91.11% # Class of committed instruction. (Count)
system.cpu_cluster.cpus2.commitStats0.committedInstType::SimdReduceAlu            0      0.00%     91.11% # Class of committed instruction. (Count)
system.cpu_cluster.cpus2.commitStats0.committedInstType::SimdReduceCmp            0      0.00%     91.11% # Class of committed instruction. (Count)
system.cpu_cluster.cpus2.commitStats0.committedInstType::SimdFloatReduceAdd            0      0.00%     91.11% # Class of committed instruction. (Count)
system.cpu_cluster.cpus2.commitStats0.committedInstType::SimdFloatReduceCmp            0      0.00%     91.11% # Class of committed instruction. (Count)
system.cpu_cluster.cpus2.commitStats0.committedInstType::SimdAes            0      0.00%     91.11% # Class of committed instruction. (Count)
system.cpu_cluster.cpus2.commitStats0.committedInstType::SimdAesMix            0      0.00%     91.11% # Class of committed instruction. (Count)
system.cpu_cluster.cpus2.commitStats0.committedInstType::SimdSha1Hash            0      0.00%     91.11% # Class of committed instruction. (Count)
system.cpu_cluster.cpus2.commitStats0.committedInstType::SimdSha1Hash2            0      0.00%     91.11% # Class of committed instruction. (Count)
system.cpu_cluster.cpus2.commitStats0.committedInstType::SimdSha256Hash            0      0.00%     91.11% # Class of committed instruction. (Count)
system.cpu_cluster.cpus2.commitStats0.committedInstType::SimdSha256Hash2            0      0.00%     91.11% # Class of committed instruction. (Count)
system.cpu_cluster.cpus2.commitStats0.committedInstType::SimdShaSigma2            0      0.00%     91.11% # Class of committed instruction. (Count)
system.cpu_cluster.cpus2.commitStats0.committedInstType::SimdShaSigma3            0      0.00%     91.11% # Class of committed instruction. (Count)
system.cpu_cluster.cpus2.commitStats0.committedInstType::SimdPredAlu            0      0.00%     91.11% # Class of committed instruction. (Count)
system.cpu_cluster.cpus2.commitStats0.committedInstType::Matrix            0      0.00%     91.11% # Class of committed instruction. (Count)
system.cpu_cluster.cpus2.commitStats0.committedInstType::MatrixMov            0      0.00%     91.11% # Class of committed instruction. (Count)
system.cpu_cluster.cpus2.commitStats0.committedInstType::MatrixOP            0      0.00%     91.11% # Class of committed instruction. (Count)
system.cpu_cluster.cpus2.commitStats0.committedInstType::MemRead            4      8.89%    100.00% # Class of committed instruction. (Count)
system.cpu_cluster.cpus2.commitStats0.committedInstType::MemWrite            0      0.00%    100.00% # Class of committed instruction. (Count)
system.cpu_cluster.cpus2.commitStats0.committedInstType::FloatMemRead            0      0.00%    100.00% # Class of committed instruction. (Count)
[...]
system.membus.pktSize_system.cpu_cluster.cpus0.mmu.itb_walker.port::total           32                       # Cumulative packet size per connected requestor and responder (Byte)
system.membus.pktSize_system.cpu_cluster.cpus0.mmu.dtb_walker.port::system.mem_ctrls.port          120                       # Cumulative packet size per connected requestor and responder (Byte)
system.membus.pktSize_system.cpu_cluster.cpus0.mmu.dtb_walker.port::total          120                       # Cumulative packet size per connected requestor and responder (Byte)
system.membus.pktSize_system.cpu_cluster.cpus1.icache_port::system.realview.bootmem.port          180                       # Cumulative packet size per connected requestor and responder (Byte)
system.membus.pktSize_system.cpu_cluster.cpus1.icache_port::total          180                       # Cumulative packet size per connected requestor and responder (Byte)
system.membus.pktSize_system.cpu_cluster.cpus1.dcache_port::system.mem_ctrls.port            8                       # Cumulative packet size per connected requestor and responder (Byte)
system.membus.pktSize_system.cpu_cluster.cpus1.dcache_port::system.realview.bootmem.port           24                       # Cumulative packet size per connected requestor and responder (Byte)
system.membus.pktSize_system.cpu_cluster.cpus1.dcache_port::total           32                       # Cumulative packet size per connected requestor and responder (Byte)
system.membus.pktSize_system.cpu_cluster.cpus2.icache_port::system.realview.bootmem.port          180                       # Cumulative packet size per connected requestor and responder (Byte)
system.membus.pktSize_system.cpu_cluster.cpus2.icache_port::total          180                       # Cumulative packet size per connected requestor and responder (Byte)
system.membus.pktSize_system.cpu_cluster.cpus2.dcache_port::system.mem_ctrls.port            8                       # Cumulative packet size per connected requestor and responder (Byte)
system.membus.pktSize_system.cpu_cluster.cpus2.dcache_port::system.realview.bootmem.port           24                       # Cumulative packet size per connected requestor and responder (Byte)
system.membus.pktSize_system.cpu_cluster.cpus2.dcache_port::total           32                       # Cumulative packet size per connected requestor and responder (Byte)
system.membus.pktSize_system.cpu_cluster.cpus3.icache_port::system.realview.bootmem.port          180                       # Cumulative packet size per connected requestor and responder (Byte)
system.membus.pktSize_system.cpu_cluster.cpus3.icache_port::total          180                       # Cumulative packet size per connected requestor and responder (Byte)
system.membus.pktSize_system.cpu_cluster.cpus3.dcache_port::system.mem_ctrls.port            8                       # Cumulative packet size per connected requestor and responder (Byte)
system.membus.pktSize_system.cpu_cluster.cpus3.dcache_port::system.realview.bootmem.port           24                       # Cumulative packet size per connected requestor and responder (Byte)
system.membus.pktSize_system.cpu_cluster.cpus3.dcache_port::total           32                       # Cumulative packet size per connected requestor and responder (Byte)
system.membus.pktSize::total                 75936076                       # Cumulative packet size per connected requestor and responder (Byte)
system.membus.snoops                                0                       # Total snoops (Count)
system.membus.snoopTraffic                          0                       # Total snoop traffic (Byte)
system.membus.snoopFanout::samples           16542783                       # Request fanout histogram (Count)
system.membus.snoopFanout::mean                     0                       # Request fanout histogram (Count)
system.membus.snoopFanout::stdev                    0                       # Request fanout histogram (Count)
system.membus.snoopFanout::underflows               0      0.00%      0.00% # Request fanout histogram (Count)
system.membus.snoopFanout::0                 16542783    100.00%    100.00% # Request fanout histogram (Count)
system.membus.snoopFanout::1                        0      0.00%    100.00% # Request fanout histogram (Count)
system.membus.snoopFanout::2                        0      0.00%    100.00% # Request fanout histogram (Count)
system.membus.snoopFanout::3                        0      0.00%    100.00% # Request fanout histogram (Count)
system.membus.snoopFanout::4                        0      0.00%    100.00% # Request fanout histogram (Count)
system.membus.snoopFanout::overflows                0      0.00%    100.00% # Request fanout histogram (Count)
system.membus.snoopFanout::min_value                0                       # Request fanout histogram (Count)
system.membus.snoopFanout::max_value                0                       # Request fanout histogram (Count)
system.membus.snoopFanout::total             16542783                       # Request fanout histogram (Count)
system.membus.badaddr_responder.power_state.pwrStateResidencyTicks::UNDEFINED     14913430                       # Cumulative time (in ticks) in various power states (Tick)
system.membus.power_state.pwrStateResidencyTicks::UNDEFINED     14913430                       # Cumulative time (in ticks) in various power states (Tick)
system.membus.snoop_filter.totRequests            456                       # Total number of requests made to the snoop filter. (Count)
system.membus.snoop_filter.hitSingleRequests            0                       # Number of requests hitting in the snoop filter with a single holder of the requested data. (Count)
system.membus.snoop_filter.hitMultiRequests            0                       # Number of requests hitting in the snoop filter with multiple (>1) holders of the requested data. (Count)
system.membus.snoop_filter.totSnoops                0                       # Total number of snoops made to the snoop filter. (Count)
system.membus.snoop_filter.hitSingleSnoops            0                       # Number of snoops hitting in the snoop filter with a single holder of the requested data. (Count)
system.membus.snoop_filter.hitMultiSnoops            0                       # Number of snoops hitting in the snoop filter with multiple (>1) holders of the requested data. (Count)
system.pci_devices.power_state.pwrStateResidencyTicks::UNDEFINED     14913430                       # Cumulative time (in ticks) in various power states (Tick)
system.realview.bootmem.bytesRead::cpu_cluster.cpus0.inst          484                       # Number of bytes read from this memory (Byte)
system.realview.bootmem.bytesRead::cpu_cluster.cpus0.data           68                       # Number of bytes read from this memory (Byte)
system.realview.bootmem.bytesRead::cpu_cluster.cpus1.inst          180                       # Number of bytes read from this memory (Byte)
system.realview.bootmem.bytesRead::cpu_cluster.cpus1.data           24                       # Number of bytes read from this memory (Byte)
system.realview.bootmem.bytesRead::cpu_cluster.cpus2.inst          180                       # Number of bytes read from this memory (Byte)
system.realview.bootmem.bytesRead::cpu_cluster.cpus2.data           24                       # Number of bytes read from this memory (Byte)
system.realview.bootmem.bytesRead::cpu_cluster.cpus3.inst          180                       # Number of bytes read from this memory (Byte)
system.realview.bootmem.bytesRead::cpu_cluster.cpus3.data           24                       # Number of bytes read from this memory (Byte)
system.realview.bootmem.bytesRead::total         1164                       # Number of bytes read from this memory (Byte)
system.realview.bootmem.bytesInstRead::cpu_cluster.cpus0.inst          484                       # Number of instructions bytes read from this memory (Byte)
system.realview.bootmem.bytesInstRead::cpu_cluster.cpus1.inst          180                       # Number of instructions bytes read from this memory (Byte)
system.realview.bootmem.bytesInstRead::cpu_cluster.cpus2.inst          180                       # Number of instructions bytes read from this memory (Byte)
system.realview.bootmem.bytesInstRead::cpu_cluster.cpus3.inst          180                       # Number of instructions bytes read from this memory (Byte)
system.realview.bootmem.bytesInstRead::total         1024                       # Number of instructions bytes read from this memory (Byte)
system.realview.bootmem.numReads::cpu_cluster.cpus0.inst          121                       # Number of read requests responded to by this memory (Count)
system.realview.bootmem.numReads::cpu_cluster.cpus0.data            9                       # Number of read requests responded to by this memory (Count)
system.realview.bootmem.numReads::cpu_cluster.cpus1.inst           45                       # Number of read requests responded to by this memory (Count)
system.realview.bootmem.numReads::cpu_cluster.cpus1.data            3                       # Number of read requests responded to by this memory (Count)
system.realview.bootmem.numReads::cpu_cluster.cpus2.inst           45                       # Number of read requests responded to by this memory (Count)
system.realview.bootmem.numReads::cpu_cluster.cpus2.data            3                       # Number of read requests responded to by this memory (Count)
system.realview.bootmem.numReads::cpu_cluster.cpus3.inst           45                       # Number of read requests responded to by this memory (Count)
system.realview.bootmem.numReads::cpu_cluster.cpus3.data            3                       # Number of read requests responded to by this memory (Count)
system.realview.bootmem.numReads::total           274                       # Number of read requests responded to by this memory (Count)
system.realview.bootmem.bwRead::cpu_cluster.cpus0.inst        48681                       # Total read bandwidth from this memory ((Byte/Second))
system.realview.bootmem.bwRead::cpu_cluster.cpus0.data         6839                       # Total read bandwidth from this memory ((Byte/Second))
system.realview.bootmem.bwRead::cpu_cluster.cpus1.inst        18104                       # Total read bandwidth from this memory ((Byte/Second))
system.realview.bootmem.bwRead::cpu_cluster.cpus1.data         2414                       # Total read bandwidth from this memory ((Byte/Second))
system.realview.bootmem.bwRead::cpu_cluster.cpus2.inst        18104                       # Total read bandwidth from this memory ((Byte/Second))
system.realview.bootmem.bwRead::cpu_cluster.cpus2.data         2414                       # Total read bandwidth from this memory ((Byte/Second))
system.realview.bootmem.bwRead::cpu_cluster.cpus3.inst        18104                       # Total read bandwidth from this memory ((Byte/Second))
system.realview.bootmem.bwRead::cpu_cluster.cpus3.data         2414                       # Total read bandwidth from this memory ((Byte/Second))
system.realview.bootmem.bwRead::total          117076                       # Total read bandwidth from this memory ((Byte/Second))
system.realview.bootmem.bwInstRead::cpu_cluster.cpus0.inst        48681                       # Instruction read bandwidth from this memory ((Byte/Second))
system.realview.bootmem.bwInstRead::cpu_cluster.cpus1.inst        18104                       # Instruction read bandwidth from this memory ((Byte/Second))
system.realview.bootmem.bwInstRead::cpu_cluster.cpus2.inst        18104                       # Instruction read bandwidth from this memory ((Byte/Second))
system.realview.bootmem.bwInstRead::cpu_cluster.cpus3.inst        18104                       # Instruction read bandwidth from this memory ((Byte/Second))
system.realview.bootmem.bwInstRead::total       102994                       # Instruction read bandwidth from this memory ((Byte/Second))
system.realview.bootmem.bwTotal::cpu_cluster.cpus0.inst        48681                       # Total bandwidth to/from this memory ((Byte/Second))
system.realview.bootmem.bwTotal::cpu_cluster.cpus0.data         6839                       # Total bandwidth to/from this memory ((Byte/Second))
system.realview.bootmem.bwTotal::cpu_cluster.cpus1.inst        18104                       # Total bandwidth to/from this memory ((Byte/Second))
system.realview.bootmem.bwTotal::cpu_cluster.cpus1.data         2414                       # Total bandwidth to/from this memory ((Byte/Second))
system.realview.bootmem.bwTotal::cpu_cluster.cpus2.inst        18104                       # Total bandwidth to/from this memory ((Byte/Second))
system.realview.bootmem.bwTotal::cpu_cluster.cpus2.data         2414                       # Total bandwidth to/from this memory ((Byte/Second))
system.realview.bootmem.bwTotal::cpu_cluster.cpus3.inst        18104                       # Total bandwidth to/from this memory ((Byte/Second))
system.realview.bootmem.bwTotal::cpu_cluster.cpus3.data         2414                       # Total bandwidth to/from this memory ((Byte/Second))
system.realview.bootmem.bwTotal::total         117076                       # Total bandwidth to/from this memory ((Byte/Second))
system.realview.bootmem.power_state.pwrStateResidencyTicks::UNDEFINED     14913430                       # Cumulative time (in ticks) in various power states (Tick)
system.realview.clock24MHz.clock                   63                       # Clock period in ticks (Tick)
system.realview.clock32KHz.clock                46875                       # Clock period in ticks (Tick)
system.realview.dcc.osc_cpu.clock                  25                       # Clock period in ticks (Tick)
system.realview.dcc.osc_ddr.clock                  38                       # Clock period in ticks (Tick)
system.realview.dcc.osc_hsbm.clock                 38                       # Clock period in ticks (Tick)
system.realview.dcc.osc_pxl.clock                  63                       # Clock period in ticks (Tick)
system.realview.dcc.osc_smb.clock                  30                       # Clock period in ticks (Tick)
system.realview.dcc.osc_sys.clock                  25                       # Clock period in ticks (Tick)
system.realview.el2_watchdog.power_state.pwrStateResidencyTicks::UNDEFINED     14913430                       # Cumulative time (in ticks) in various power states (Tick)
system.realview.energy_ctrl.power_state.pwrStateResidencyTicks::UNDEFINED     14913430                       # Cumulative time (in ticks) in various power states (Tick)
system.realview.flash0.power_state.pwrStateResidencyTicks::UNDEFINED     14913430                       # Cumulative time (in ticks) in various power states (Tick)
system.realview.flash1.power_state.pwrStateResidencyTicks::UNDEFINED     14913430                       # Cumulative time (in ticks) in various power states (Tick)
system.realview.generic_timer_mem.frames0.power_state.pwrStateResidencyTicks::UNDEFINED     14913430                       # Cumulative time (in ticks) in various power states (Tick)
system.realview.generic_timer_mem.frames1.power_state.pwrStateResidencyTicks::UNDEFINED     14913430                       # Cumulative time (in ticks) in various power states (Tick)
system.realview.generic_timer_mem.power_state.pwrStateResidencyTicks::UNDEFINED     14913430                       # Cumulative time (in ticks) in various power states (Tick)
system.realview.gic.its.power_state.pwrStateResidencyTicks::UNDEFINED     14913430                       # Cumulative time (in ticks) in various power states (Tick)
system.realview.gic.power_state.pwrStateResidencyTicks::UNDEFINED     14913430                       # Cumulative time (in ticks) in various power states (Tick)
system.realview.io_voltage.voltage           3.300000                       # Voltage in Volts (Volt)
system.realview.kmi0.power_state.pwrStateResidencyTicks::UNDEFINED     14913430                       # Cumulative time (in ticks) in various power states (Tick)
system.realview.kmi1.power_state.pwrStateResidencyTicks::UNDEFINED     14913430                       # Cumulative time (in ticks) in various power states (Tick)
system.realview.mcc.osc_clcd.clock                 63                       # Clock period in ticks (Tick)
system.realview.mcc.osc_mcc.clock                  30                       # Clock period in ticks (Tick)
system.realview.mcc.osc_peripheral.clock           63                       # Clock period in ticks (Tick)
system.realview.mcc.osc_system_bus.clock           63                       # Clock period in ticks (Tick)
system.realview.non_trusted_sram.power_state.pwrStateResidencyTicks::UNDEFINED     14913430                       # Cumulative time (in ticks) in various power states (Tick)
system.realview.pci_host.power_state.pwrStateResidencyTicks::UNDEFINED     14913430                       # Cumulative time (in ticks) in various power states (Tick)
system.realview.pwr_ctrl.power_state.pwrStateResidencyTicks::UNDEFINED     14913430                       # Cumulative time (in ticks) in various power states (Tick)
system.realview.realview_io.power_state.pwrStateResidencyTicks::UNDEFINED     14913430                       # Cumulative time (in ticks) in various power states (Tick)
system.realview.rtc.power_state.pwrStateResidencyTicks::UNDEFINED     14913430                       # Cumulative time (in ticks) in various power states (Tick)
system.realview.system_watchdog.power_state.pwrStateResidencyTicks::UNDEFINED     14913430                       # Cumulative time (in ticks) in various power states (Tick)
system.realview.trusted_dram.power_state.pwrStateResidencyTicks::UNDEFINED     14913430                       # Cumulative time (in ticks) in various power states (Tick)
system.realview.trusted_sram.power_state.pwrStateResidencyTicks::UNDEFINED     14913430                       # Cumulative time (in ticks) in various power states (Tick)
system.realview.trusted_watchdog.power_state.pwrStateResidencyTicks::UNDEFINED     14913430                       # Cumulative time (in ticks) in various power states (Tick)
system.realview.uart0.power_state.pwrStateResidencyTicks::UNDEFINED     14913430                       # Cumulative time (in ticks) in various power states (Tick)
system.realview.uart1.power_state.pwrStateResidencyTicks::UNDEFINED     14913430                       # Cumulative time (in ticks) in various power states (Tick)
system.realview.uart2.power_state.pwrStateResidencyTicks::UNDEFINED     14913430                       # Cumulative time (in ticks) in various power states (Tick)
system.realview.uart3.power_state.pwrStateResidencyTicks::UNDEFINED     14913430                       # Cumulative time (in ticks) in various power states (Tick)
system.realview.vio0.power_state.pwrStateResidencyTicks::UNDEFINED     14913430                       # Cumulative time (in ticks) in various power states (Tick)
system.realview.vio1.power_state.pwrStateResidencyTicks::UNDEFINED     14913430                       # Cumulative time (in ticks) in various power states (Tick)
system.realview.vram.power_state.pwrStateResidencyTicks::UNDEFINED     14913430                       # Cumulative time (in ticks) in various power states (Tick)
system.realview.watchdog.power_state.pwrStateResidencyTicks::UNDEFINED     14913430                       # Cumulative time (in ticks) in various power states (Tick)
system.voltage_domain.voltage                0.820100                       # Voltage in Volts (Volt)
system.workload.inst.arm                            0                       # number of arm instructions executed (Count)
system.workload.inst.quiesce                        6                       # number of quiesce instructions executed (Count)

---------- End Simulation Statistics   ----------
